REMARK  0 active torsions:
REMARK  status: ('A' for Active; 'I' for Inactive)
REMARK       I    between atoms: C6_6388  and  C5_6387 
REMARK       I    between atoms: S_6395  and  O2_6389 
REMARK       I    between atoms: O2_6389  and  C2_6384 
REMARK       I    between atoms: O4_6372  and  C1_6383 
REMARK       I    between atoms: O2_6319  and  C2_6313 
REMARK       I    between atoms: O2_6319  and  S_6325 
REMARK       I    between atoms: C4_6315  and  O4_6321 
REMARK       I    between atoms: C6_6317  and  C5_6316 
REMARK       I    between atoms: C1_6329  and  O4_6321 
REMARK       I    between atoms: S2_6379  and  O6_6374 
REMARK       I    between atoms: O6_6374  and  C6_6369 
REMARK       I    between atoms: C6_6369  and  C5_6368 
REMARK       I    between atoms: S1_6375  and  N_6370 
REMARK       I    between atoms: O4_6372  and  C4_6367 
REMARK       I    between atoms: C1_6364  and  O4_6356 
REMARK       I    between atoms: N_6370  and  C2_6365 
REMARK       I    between atoms: C6_6334  and  C5_6333 
REMARK       I    between atoms: C6_6334  and  O6_6339 
REMARK       I    between atoms: O6_6339  and  S2_6344 
REMARK       I    between atoms: C4_6332  and  O4_6337 
REMARK       I    between atoms: O4_6337  and  C1_6348 
REMARK       I    between atoms: S1_6340  and  N_6335 
REMARK       I    between atoms: C2_6330  and  N_6335 
REMARK       I    between atoms: S_6360  and  O2_6354 
REMARK       I    between atoms: C6_6353  and  C5_6352 
REMARK       I    between atoms: O2_6354  and  C2_6349 
REMARK       I    between atoms: C4_6351  and  O4_6356 
ROOT
HETATM    1  C6  IDS F 506      -7.691  48.138 174.708  1.00 54.08     0.217 C 
HETATM    2  O62 IDS F 506      -6.593  48.525 175.069  1.00 56.52    -0.646 OA
HETATM    3  S   IDS F 506      -9.644  48.220 168.747  1.00 49.96     0.252 S 
HETATM    4  O1S IDS F 506      -8.616  49.185 168.505  1.00 53.27    -0.572 OA
HETATM    5  O3S IDS F 506     -10.936  48.623 168.235  1.00 48.42    -0.572 OA
HETATM    6  O4  IDS F 506      -7.066  48.210 171.774  1.00 44.42    -0.217 OA
HETATM    7  O3  IDS F 506      -8.835  51.324 171.732  1.00 51.27    -0.218 OA
HETATM    8  C4  IDS F 506      -7.679  49.315 172.396  1.00 47.30     0.223 C 
HETATM    9  O2  IDS F 506      -9.807  48.178 170.327  1.00 48.75    -0.233 OA
HETATM   10  C2  IDS F 506      -9.989  49.261 171.218  1.00 46.37     0.226 C 
HETATM   11  C1  IDS F 506     -10.548  48.756 172.556  1.00 43.62     0.269 C 
HETATM   12  O2S IDS F 506      -9.241  46.915 168.305  1.00 48.04    -0.572 OA
HETATM   13  O5  IDS F 506      -9.535  48.041 173.217  1.00 45.84    -0.318 OA
HETATM   14  O61 IDS F 506      -8.165  47.157 175.264  1.00 58.45    -0.646 OA
HETATM   15  C3  IDS F 506      -8.612  49.968 171.354  1.00 48.87     0.219 C 
HETATM   16  C5  IDS F 506      -8.475  48.845 173.618  1.00 49.07     0.237 C 
HETATM   17  O62 IDS F 502     -19.893  58.847 175.506  1.00 62.53    -0.646 OA
HETATM   18  O2  IDS F 502     -23.304  54.530 174.223  1.00 65.07    -0.232 OA
HETATM   19  S   IDS F 502     -23.538  53.542 173.033  1.00 69.86     0.252 S 
HETATM   20  O3  IDS F 502     -24.117  57.962 173.583  1.00 60.83    -0.218 OA
HETATM   21  O2S IDS F 502     -22.278  52.866 172.828  1.00 70.30    -0.572 OA
HETATM   22  C4  IDS F 502     -21.889  57.120 173.923  1.00 55.36     0.189 C 
HETATM   23  C1  IDS F 502     -23.728  56.123 175.927  1.00 56.65     0.301 C 
HETATM   24  O61 IDS F 502     -19.872  57.171 176.727  1.00 61.49    -0.646 OA
HETATM   25  C6  IDS F 502     -20.453  57.848 175.914  1.00 60.51     0.216 C 
HETATM   26  O1  IDS F 502     -24.575  57.199 176.232  1.00 53.77    -0.187 OA
HETATM   27  C3  IDS F 502     -23.336  56.785 173.514  1.00 58.70     0.216 C 
HETATM   28  O3S IDS F 502     -24.597  52.674 173.479  1.00 70.55    -0.572 OA
HETATM   29  O5  IDS F 502     -22.376  56.410 176.183  1.00 57.63    -0.316 OA
HETATM   30  C2  IDS F 502     -23.949  55.752 174.464  1.00 59.30     0.229 C 
HETATM   31  O4  IDS F 502     -21.060  56.015 173.670  1.00 48.93    -0.326 OA
HETATM   32  O1S IDS F 502     -23.927  54.329 171.896  1.00 70.44    -0.572 OA
HETATM   33  C5  IDS F 502     -21.837  57.464 175.410  1.00 57.84     0.234 C 
HETATM   34  S2  SGN F 505     -14.088  44.704 170.545  1.00 52.77     0.252 S 
HETATM   35  O6  SGN F 505     -13.848  45.830 171.540  1.00 48.98    -0.235 OA
HETATM   36  O5S SGN F 505     -15.133  43.910 171.142  1.00 53.28    -0.572 OA
HETATM   37  C6  SGN F 505     -14.085  47.183 171.350  1.00 43.84     0.198 C 
HETATM   38  O2S SGN F 505     -13.466  46.266 178.268  1.00 34.46    -0.577 OA
HETATM   39  S1  SGN F 505     -14.423  47.322 178.034  1.00 35.01     0.227 S 
HETATM   40  O6S SGN F 505     -14.505  45.325 169.295  1.00 54.99    -0.572 OA
HETATM   41  O4  SGN F 505     -11.597  47.885 172.304  1.00 38.47    -0.326 OA
HETATM   42  O5  SGN F 505     -14.897  47.314 173.511  1.00 39.97    -0.327 OA
HETATM   43  O4S SGN F 505     -12.813  44.032 170.436  1.00 53.88    -0.572 OA
HETATM   44  C1  SGN F 505     -14.952  47.923 174.770  1.00 38.63     0.263 C 
HETATM   45  O1S SGN F 505     -15.677  46.825 177.508  1.00 31.48    -0.577 OA
HETATM   46  N   SGN F 505     -13.724  48.284 176.853  1.00 36.78    -0.162 NA
HETATM   47  C3  SGN F 505     -12.463  48.264 174.632  1.00 35.68     0.210 C 
HETATM   48  C2  SGN F 505     -13.629  47.726 175.484  1.00 36.31     0.207 C 
HETATM   49  O3S SGN F 505     -14.588  48.135 179.186  1.00 31.95    -0.577 OA
HETATM   50  C4  SGN F 505     -12.543  47.499 173.279  1.00 36.62     0.180 C 
HETATM   51  C5  SGN F 505     -13.882  47.808 172.692  1.00 39.15     0.179 C 
HETATM   52  O3  SGN F 505     -11.243  47.970 175.300  1.00 34.42    -0.218 OA
HETATM   53  C6  SGN F 503     -17.635  55.413 175.851  1.00 41.38     0.198 C 
HETATM   54  O6  SGN F 503     -16.440  55.857 175.246  1.00 38.46    -0.235 OA
HETATM   55  C4  SGN F 503     -18.163  54.061 173.744  1.00 42.81     0.180 C 
HETATM   56  O5  SGN F 503     -18.811  56.360 174.124  1.00 42.91    -0.327 OA
HETATM   57  O4  SGN F 503     -18.093  52.835 174.396  1.00 44.66    -0.326 OA
HETATM   58  S1  SGN F 503     -20.273  56.404 169.787  1.00 48.23     0.227 S 
HETATM   59  O4S SGN F 503     -15.407  56.640 177.281  1.00 39.92    -0.572 OA
HETATM   60  O2S SGN F 503     -18.913  56.330 169.255  1.00 45.17    -0.577 OA
HETATM   61  C3  SGN F 503     -19.171  53.946 172.603  1.00 42.03     0.210 C 
HETATM   62  S2  SGN F 503     -15.425  56.849 175.873  1.00 36.50     0.252 S 
HETATM   63  O5S SGN F 503     -14.127  56.575 175.264  1.00 35.29    -0.572 OA
HETATM   64  C1  SGN F 503     -19.806  56.333 173.131  1.00 46.08     0.263 C 
HETATM   65  O1S SGN F 503     -20.554  57.695 170.386  1.00 47.04    -0.577 OA
HETATM   66  O6S SGN F 503     -15.969  58.117 175.578  1.00 38.59    -0.572 OA
HETATM   67  C2  SGN F 503     -19.410  55.333 172.035  1.00 45.40     0.207 C 
HETATM   68  N   SGN F 503     -20.411  55.309 170.983  1.00 47.47    -0.162 NA
HETATM   69  O3  SGN F 503     -18.616  53.107 171.608  1.00 36.44    -0.218 OA
HETATM   70  C5  SGN F 503     -18.622  55.130 174.751  1.00 42.30     0.179 C 
HETATM   71  O3S SGN F 503     -21.292  55.997 168.846  1.00 47.76    -0.577 OA
HETATM   72  O61 IDS F 504     -15.119  50.402 171.475  1.00 51.34    -0.646 OA
HETATM   73  O62 IDS F 504     -16.914  49.358 171.127  1.00 51.44    -0.646 OA
HETATM   74  O3S IDS F 504     -16.021  53.062 178.192  1.00 38.15    -0.572 OA
HETATM   75  S   IDS F 504     -15.184  51.946 177.955  1.00 38.24     0.252 S 
HETATM   76  C6  IDS F 504     -16.236  50.081 171.860  1.00 50.04     0.216 C 
HETATM   77  O3  IDS F 504     -18.723  50.079 175.335  1.00 43.07    -0.218 OA
HETATM   78  C1  IDS F 504     -16.791  52.425 174.700  1.00 44.59     0.269 C 
HETATM   79  O2  IDS F 504     -15.548  51.517 176.522  1.00 40.77    -0.233 OA
HETATM   80  C5  IDS F 504     -16.766  50.548 173.226  1.00 46.30     0.234 C 
HETATM   81  C4  IDS F 504     -16.640  49.526 174.354  1.00 44.00     0.189 C 
HETATM   82  O5  IDS F 504     -16.155  51.761 173.603  1.00 44.95    -0.318 OA
HETATM   83  O4  IDS F 504     -15.271  49.282 174.642  1.00 41.91    -0.326 OA
HETATM   84  C2  IDS F 504     -16.845  51.540 175.929  1.00 43.71     0.226 C 
HETATM   85  O1S IDS F 504     -15.510  50.852 178.795  1.00 41.59    -0.572 OA
HETATM   86  O2S IDS F 504     -13.779  52.230 177.979  1.00 39.13    -0.572 OA
HETATM   87  C3  IDS F 504     -17.325  50.075 175.596  1.00 44.01     0.216 C 
ENDROOT
TORSDOF 27
