REMARK  0 active torsions:
REMARK  status: ('A' for Active; 'I' for Inactive)
REMARK       I    between atoms: C6_6192  and  C5_6191 
REMARK       I    between atoms: C4_6190  and  O4_6195 
REMARK       I    between atoms: O2_6193  and  C2_6188 
REMARK       I    between atoms: O2_6193  and  S_6199 
REMARK       I    between atoms: C1_6203  and  O4_6195 
REMARK       I    between atoms: O4_6176  and  C1_6187 
REMARK       I    between atoms: S1_6179  and  N_6174 
REMARK       I    between atoms: C4_6171  and  O4_6176 
REMARK       I    between atoms: O6_6178  and  C6_6173 
REMARK       I    between atoms: O6_6178  and  S2_6183 
REMARK       I    between atoms: C2_6169  and  N_6174 
REMARK       I    between atoms: C1_6168  and  O4_6160 
REMARK       I    between atoms: C6_6173  and  C5_6172 
REMARK       I    between atoms: C2_6133  and  N_6138 
REMARK       I    between atoms: C5_6136  and  C6_6137 
REMARK       I    between atoms: O6_6143  and  C6_6137 
REMARK       I    between atoms: O6_6143  and  S2_6148 
REMARK       I    between atoms: N_6138  and  S1_6144 
REMARK       I    between atoms: O4_6141  and  C4_6135 
REMARK       I    between atoms: O4_6141  and  C1_6152 
REMARK       I    between atoms: C6_6157  and  C5_6156 
REMARK       I    between atoms: C4_6155  and  O4_6160 
REMARK       I    between atoms: S_6164  and  O2_6158 
REMARK       I    between atoms: C2_6153  and  O2_6158 
REMARK       I    between atoms: O6_6213  and  C6_6208 
REMARK       I    between atoms: O6_6213  and  S2_6218 
REMARK       I    between atoms: C2_6204  and  N_6209 
REMARK       I    between atoms: S1_6214  and  N_6209 
REMARK       I    between atoms: C5_6207  and  C6_6208 
ROOT
HETATM    1  C6  IDS B 304     -13.625  11.088  45.185  1.00 32.72     0.216 C 
HETATM    2  O61 IDS B 304     -14.665  11.713  45.134  1.00 37.20    -0.646 OA
HETATM    3  C4  IDS B 304     -12.408   9.909  46.987  1.00 30.84     0.189 C 
HETATM    4  O2  IDS B 304     -14.215   9.037  49.339  1.00 27.22    -0.233 OA
HETATM    5  O62 IDS B 304     -12.678  11.482  44.575  1.00 32.60    -0.646 OA
HETATM    6  C2  IDS B 304     -13.817   8.212  48.276  1.00 29.48     0.226 C 
HETATM    7  O1S IDS B 304     -14.283   7.892  51.433  1.00 31.01    -0.572 OA
HETATM    8  O3  IDS B 304     -11.816   7.630  47.057  1.00 29.27    -0.218 OA
HETATM    9  C5  IDS B 304     -13.527   9.868  45.981  1.00 30.17     0.234 C 
HETATM   10  O5  IDS B 304     -14.764   9.616  46.566  1.00 28.11    -0.318 OA
HETATM   11  O2S IDS B 304     -15.499   9.899  51.063  1.00 36.08    -0.572 OA
HETATM   12  O3S IDS B 304     -16.252   7.901  50.117  1.00 27.09    -0.572 OA
HETATM   13  S   IDS B 304     -15.118   8.644  50.542  1.00 29.34     0.252 S 
HETATM   14  O4  IDS B 304     -12.601  11.003  47.819  1.00 36.49    -0.326 OA
HETATM   15  C3  IDS B 304     -12.392   8.645  47.834  1.00 30.57     0.216 C 
HETATM   16  C1  IDS B 304     -14.852   8.329  47.151  1.00 28.93     0.269 C 
HETATM   17  O3  SGN B 303     -14.382   7.491  43.315  1.00 19.90    -0.218 OA
HETATM   18  S1  SGN B 303     -16.456   5.457  40.536  1.00 21.81     0.227 S 
HETATM   19  O5S SGN B 303     -19.912   8.649  47.162  1.00 42.69    -0.572 OA
HETATM   20  C4  SGN B 303     -15.652   6.975  45.331  1.00 27.07     0.180 C 
HETATM   21  C3  SGN B 303     -15.016   6.438  43.995  1.00 25.76     0.210 C 
HETATM   22  O2S SGN B 303     -16.465   6.864  40.283  1.00 24.76    -0.577 OA
HETATM   23  O6  SGN B 303     -18.050   7.189  46.959  1.00 34.99    -0.235 OA
HETATM   24  C2  SGN B 303     -16.124   5.878  43.090  1.00 27.75     0.207 C 
HETATM   25  O3S SGN B 303     -15.792   4.705  39.548  1.00 21.52    -0.577 OA
HETATM   26  O5  SGN B 303     -17.475   5.400  45.023  1.00 27.55    -0.327 OA
HETATM   27  C1  SGN B 303     -16.950   4.833  43.834  1.00 29.06     0.263 C 
HETATM   28  O4S SGN B 303     -18.948   7.670  49.123  1.00 39.87    -0.572 OA
HETATM   29  C6  SGN B 303     -17.177   6.153  47.219  1.00 30.20     0.198 C 
HETATM   30  O6S SGN B 303     -20.191   6.283  47.592  1.00 37.55    -0.572 OA
HETATM   31  N   SGN B 303     -15.577   5.284  41.872  1.00 24.80    -0.162 NA
HETATM   32  O1S SGN B 303     -17.783   4.970  40.827  1.00 20.08    -0.577 OA
HETATM   33  C5  SGN B 303     -16.475   5.831  45.936  1.00 28.04     0.179 C 
HETATM   34  O4  SGN B 303     -14.625   7.300  46.221  1.00 28.50    -0.326 OA
HETATM   35  S2  SGN B 303     -19.352   7.460  47.760  1.00 40.20     0.252 S 
HETATM   36  C2  SGN B 301     -14.489  -2.964  47.460  1.00 49.19     0.210 C 
HETATM   37  C5  SGN B 301     -13.762  -2.464  44.800  1.00 50.09     0.179 C 
HETATM   38  O6S SGN B 301     -10.557  -3.065  43.376  1.00 65.93    -0.572 OA
HETATM   39  C3  SGN B 301     -15.385  -2.172  46.517  1.00 47.47     0.210 C 
HETATM   40  O2S SGN B 301     -15.530  -1.929  50.140  1.00 54.74    -0.577 OA
HETATM   41  O6  SGN B 301     -11.881  -1.252  44.159  1.00 62.33    -0.235 OA
HETATM   42  O3  SGN B 301     -16.199  -1.270  47.232  1.00 48.00    -0.218 OA
HETATM   43  O1  SGN B 301     -14.469  -4.908  46.017  1.00 49.54    -0.188 OA
HETATM   44  C6  SGN B 301     -12.955  -1.929  43.649  1.00 56.46     0.198 C 
HETATM   45  O5S SGN B 301     -10.092  -1.988  45.523  1.00 68.85    -0.572 OA
HETATM   46  O4S SGN B 301      -9.647  -0.819  43.469  1.00 71.08    -0.572 OA
HETATM   47  O1S SGN B 301     -13.589  -3.419  50.293  1.00 48.37    -0.577 OA
HETATM   48  N   SGN B 301     -15.256  -3.692  48.452  1.00 51.75    -0.162 NA
HETATM   49  O4  SGN B 301     -15.088  -0.547  44.792  1.00 40.13    -0.326 OA
HETATM   50  C4  SGN B 301     -14.418  -1.414  45.629  1.00 45.64     0.180 C 
HETATM   51  S1  SGN B 301     -15.029  -3.286  50.019  1.00 53.70     0.227 S 
HETATM   52  S2  SGN B 301     -10.462  -1.820  44.132  1.00 68.06     0.252 S 
HETATM   53  O3S SGN B 301     -15.858  -4.209  50.755  1.00 55.56    -0.577 OA
HETATM   54  O5  SGN B 301     -12.923  -3.226  45.635  1.00 48.12    -0.325 OA
HETATM   55  C1  SGN B 301     -13.632  -3.922  46.628  1.00 48.45     0.295 C 
HETATM   56  O1S IDS B 302     -13.367   3.803  41.386  1.00 31.95    -0.572 OA
HETATM   57  O2S IDS B 302     -11.385   2.616  41.912  1.00 29.90    -0.572 OA
HETATM   58  O62 IDS B 302     -18.613   2.424  45.985  1.00 41.10    -0.646 OA
HETATM   59  C6  IDS B 302     -17.428   2.229  46.200  1.00 37.91     0.216 C 
HETATM   60  C4  IDS B 302     -16.627   2.457  43.850  1.00 32.94     0.189 C 
HETATM   61  S   IDS B 302     -12.792   2.548  41.723  1.00 31.48     0.252 S 
HETATM   62  O3S IDS B 302     -13.181   1.545  40.808  1.00 32.89    -0.572 OA
HETATM   63  C5  IDS B 302     -16.553   1.691  45.130  1.00 34.52     0.234 C 
HETATM   64  C2  IDS B 302     -14.453   1.174  43.275  1.00 33.23     0.226 C 
HETATM   65  O2  IDS B 302     -13.435   2.139  43.086  1.00 31.39    -0.233 OA
HETATM   66  C3  IDS B 302     -15.780   1.757  42.756  1.00 32.43     0.216 C 
HETATM   67  O61 IDS B 302     -16.972   2.477  47.304  1.00 39.98    -0.646 OA
HETATM   68  O5  IDS B 302     -15.223   1.623  45.538  1.00 33.98    -0.318 OA
HETATM   69  O3  IDS B 302     -16.546   0.702  42.221  1.00 29.97    -0.218 OA
HETATM   70  O4  IDS B 302     -16.111   3.733  44.096  1.00 31.57    -0.326 OA
HETATM   71  C1  IDS B 302     -14.492   0.720  44.742  1.00 35.90     0.269 C 
HETATM   72  O6  SGN B 305      -9.737  14.512  45.714  1.00 52.56    -0.235 OA
HETATM   73  C2  SGN B 305     -11.824  12.717  49.282  1.00 41.99     0.207 C 
HETATM   74  O1S SGN B 305     -10.379  10.524  50.757  1.00 33.99    -0.577 OA
HETATM   75  O5  SGN B 305     -10.862  12.423  47.085  1.00 42.95    -0.327 OA
HETATM   76  S1  SGN B 305     -11.221  11.406  51.507  1.00 34.00     0.227 S 
HETATM   77  O5S SGN B 305      -7.315  14.850  45.476  1.00 57.68    -0.572 OA
HETATM   78  C1  SGN B 305     -11.443  11.722  48.188  1.00 40.55     0.263 C 
HETATM   79  O3  SGN B 305     -13.265  14.645  49.666  1.00 44.36    -0.218 OA
HETATM   80  S2  SGN B 305      -8.581  15.029  44.772  1.00 57.49     0.252 S 
HETATM   81  O6S SGN B 305      -8.622  14.221  43.565  1.00 56.61    -0.572 OA
HETATM   82  C5  SGN B 305     -11.729  13.419  46.485  1.00 45.96     0.182 C 
HETATM   83  O4S SGN B 305      -8.918  16.419  44.553  1.00 58.07    -0.572 OA
HETATM   84  C6  SGN B 305     -10.976  14.022  45.296  1.00 48.00     0.198 C 
HETATM   85  N   SGN B 305     -12.328  12.003  50.472  1.00 38.62    -0.162 NA
HETATM   86  O2S SGN B 305     -10.448  12.503  52.015  1.00 33.67    -0.577 OA
HETATM   87  O3S SGN B 305     -11.994  10.746  52.506  1.00 33.48    -0.577 OA
HETATM   88  C4  SGN B 305     -12.188  14.449  47.529  1.00 46.11     0.214 C 
HETATM   89  O4  SGN B 305     -13.167  15.315  46.976  1.00 47.10    -0.218 OA
HETATM   90  C3  SGN B 305     -12.865  13.694  48.692  1.00 44.22     0.213 C 
ENDROOT
TORSDOF 29
