REMARK  0 active torsions:
REMARK  status: ('A' for Active; 'I' for Inactive)
REMARK       I    between atoms: C5_6226  and  C6_6227 
REMARK       I    between atoms: S1_6234  and  N_6228 
REMARK       I    between atoms: C2_6223  and  N_6228 
REMARK       I    between atoms: C1_6242  and  O4_6231 
REMARK       I    between atoms: O4_6231  and  C4_6225 
REMARK       I    between atoms: O6_6233  and  C6_6227 
REMARK       I    between atoms: O6_6233  and  S2_6238 
REMARK       I    between atoms: C4_6280  and  O4_6285 
REMARK       I    between atoms: C5_6281  and  C6_6282 
REMARK       I    between atoms: C1_6293  and  O4_6285 
REMARK       I    between atoms: C2_6278  and  O2_6283 
REMARK       I    between atoms: O2_6283  and  S_6289 
REMARK       I    between atoms: O4_6266  and  C1_6277 
REMARK       I    between atoms: N_6299  and  C2_6294 
REMARK       I    between atoms: N_6299  and  S1_6304 
REMARK       I    between atoms: S2_6308  and  O6_6303 
REMARK       I    between atoms: O6_6303  and  C6_6298 
REMARK       I    between atoms: C5_6297  and  C6_6298 
REMARK       I    between atoms: S1_6269  and  N_6264 
REMARK       I    between atoms: N_6264  and  C2_6259 
REMARK       I    between atoms: O4_6266  and  C4_6261 
REMARK       I    between atoms: C5_6262  and  C6_6263 
REMARK       I    between atoms: O6_6268  and  C6_6263 
REMARK       I    between atoms: O6_6268  and  S2_6273 
REMARK       I    between atoms: O4_6250  and  C1_6258 
REMARK       I    between atoms: O4_6250  and  C4_6245 
REMARK       I    between atoms: C5_6246  and  C6_6247 
REMARK       I    between atoms: S_6254  and  O2_6248 
REMARK       I    between atoms: C2_6243  and  O2_6248 
ROOT
HETATM    1  C5  SGN C 401      34.856  29.984 107.930  1.00 70.03     0.179 C 
HETATM    2  S1  SGN C 401      36.813  29.373 113.182  1.00 79.82     0.227 S 
HETATM    3  C3  SGN C 401      35.594  28.230 109.589  1.00 70.27     0.210 C 
HETATM    4  C2  SGN C 401      35.916  29.395 110.549  1.00 72.95     0.210 C 
HETATM    5  O1S SGN C 401      35.740  30.340 113.317  1.00 80.01    -0.577 OA
HETATM    6  C1  SGN C 401      36.324  30.604 109.691  1.00 71.06     0.295 C 
HETATM    7  O2S SGN C 401      36.490  28.126 113.822  1.00 79.12    -0.577 OA
HETATM    8  O4  SGN C 401      34.342  27.637 107.647  1.00 59.90    -0.326 OA
HETATM    9  O4S SGN C 401      30.735  30.267 106.896  1.00 75.79    -0.572 OA
HETATM   10  O3S SGN C 401      38.086  29.908 113.616  1.00 79.35    -0.577 OA
HETATM   11  O3  SGN C 401      35.133  27.113 110.326  1.00 72.13    -0.218 OA
HETATM   12  O5  SGN C 401      35.271  30.986 108.858  1.00 70.08    -0.325 OA
HETATM   13  O6S SGN C 401      31.137  32.525 107.638  1.00 75.51    -0.572 OA
HETATM   14  O6  SGN C 401      32.685  30.784 108.176  1.00 73.56    -0.235 OA
HETATM   15  C6  SGN C 401      33.675  30.607 107.199  1.00 71.93     0.198 C 
HETATM   16  S2  SGN C 401      31.190  31.108 107.956  1.00 75.55     0.252 S 
HETATM   17  O5S SGN C 401      30.565  30.777 109.208  1.00 77.02    -0.572 OA
HETATM   18  C4  SGN C 401      34.478  28.640 108.624  1.00 66.84     0.180 C 
HETATM   19  O1  SGN C 401      37.472  30.294 108.883  1.00 68.02    -0.188 OA
HETATM   20  N   SGN C 401      36.997  29.044 111.536  1.00 77.60    -0.162 NA
HETATM   21  C4  IDS C 404      24.426  22.929 110.115  1.00 47.43     0.189 C 
HETATM   22  C5  IDS C 404      25.177  22.222 108.991  1.00 49.65     0.234 C 
HETATM   23  O4  IDS C 404      23.589  21.986 110.724  1.00 46.39    -0.326 OA
HETATM   24  O5  IDS C 404      26.144  21.322 109.484  1.00 49.34    -0.318 OA
HETATM   25  C2  IDS C 404      26.623  22.717 111.473  1.00 46.46     0.226 C 
HETATM   26  O62 IDS C 404      23.909  21.943 106.990  1.00 53.47    -0.646 OA
HETATM   27  C3  IDS C 404      25.372  23.558 111.174  1.00 46.53     0.216 C 
HETATM   28  O2  IDS C 404      26.315  21.805 112.535  1.00 45.15    -0.233 OA
HETATM   29  O1S IDS C 404      27.566  22.214 114.491  1.00 46.34    -0.572 OA
HETATM   30  O2S IDS C 404      26.763  20.012 114.067  1.00 41.72    -0.572 OA
HETATM   31  S   IDS C 404      27.347  21.203 113.537  1.00 43.44     0.252 S 
HETATM   32  O3  IDS C 404      25.815  24.805 110.694  1.00 45.28    -0.218 OA
HETATM   33  C6  IDS C 404      24.227  21.485 108.074  1.00 51.72     0.216 C 
HETATM   34  O3S IDS C 404      28.536  20.969 112.804  1.00 41.69    -0.572 OA
HETATM   35  C1  IDS C 404      27.185  21.938 110.251  1.00 47.76     0.269 C 
HETATM   36  O61 IDS C 404      23.737  20.424 108.432  1.00 51.53    -0.646 OA
HETATM   37  C1  SGN C 405      22.253  22.373 110.858  1.00 45.18     0.263 C 
HETATM   38  O6S SGN C 405      18.965  23.699 108.940  1.00 47.79    -0.572 OA
HETATM   39  N   SGN C 405      22.560  21.418 113.091  1.00 38.87    -0.162 NA
HETATM   40  S1  SGN C 405      22.305  22.276 114.428  1.00 35.57     0.227 S 
HETATM   41  S2  SGN C 405      18.318  22.892 107.910  1.00 49.13     0.252 S 
HETATM   42  O2S SGN C 405      20.872  22.348 114.579  1.00 32.98    -0.577 OA
HETATM   43  C3  SGN C 405      21.129  20.196 111.512  1.00 44.51     0.213 C 
HETATM   44  O5  SGN C 405      21.504  22.331 109.622  1.00 45.15    -0.327 OA
HETATM   45  O3  SGN C 405      20.414  19.562 112.556  1.00 44.37    -0.218 OA
HETATM   46  O6  SGN C 405      18.988  21.441 107.956  1.00 47.91    -0.235 OA
HETATM   47  O5S SGN C 405      16.910  22.685 108.148  1.00 49.02    -0.572 OA
HETATM   48  C5  SGN C 405      21.057  21.010 109.209  1.00 45.46     0.182 C 
HETATM   49  O4S SGN C 405      18.557  23.408 106.609  1.00 50.52    -0.572 OA
HETATM   50  O1S SGN C 405      22.905  23.563 114.187  1.00 40.13    -0.577 OA
HETATM   51  C2  SGN C 405      21.609  21.562 111.993  1.00 43.30     0.207 C 
HETATM   52  C6  SGN C 405      20.365  21.110 107.823  1.00 46.00     0.198 C 
HETATM   53  O4  SGN C 405      19.633  19.173 109.907  1.00 46.38    -0.218 OA
HETATM   54  O3S SGN C 405      22.953  21.613 115.511  1.00 33.27    -0.577 OA
HETATM   55  C4  SGN C 405      20.188  20.421 110.314  1.00 45.63     0.214 C 
HETATM   56  O5S SGN C 403      31.592  17.827 110.168  1.00 39.58    -0.572 OA
HETATM   57  C3  SGN C 403      28.846  23.010 107.298  1.00 40.16     0.210 C 
HETATM   58  O5  SGN C 403      31.316  22.003 108.245  1.00 40.77    -0.327 OA
HETATM   59  S1  SGN C 403      30.076  22.260 103.764  1.00 45.51     0.227 S 
HETATM   60  O3  SGN C 403      27.591  22.818 106.718  1.00 37.00    -0.218 OA
HETATM   61  O4S SGN C 403      29.225  18.379 110.209  1.00 38.32    -0.572 OA
HETATM   62  N   SGN C 403      29.913  23.175 105.083  1.00 44.81    -0.162 NA
HETATM   63  O4  SGN C 403      27.978  22.797 109.472  1.00 44.79    -0.326 OA
HETATM   64  O6S SGN C 403      30.632  18.866 112.062  1.00 39.13    -0.572 OA
HETATM   65  C4  SGN C 403      28.897  22.216 108.593  1.00 41.14     0.180 C 
HETATM   66  C5  SGN C 403      30.320  22.337 109.189  1.00 40.63     0.179 C 
HETATM   67  O6  SGN C 403      30.884  20.099 109.940  1.00 41.02    -0.235 OA
HETATM   68  O1S SGN C 403      30.921  21.150 104.126  1.00 47.23    -0.577 OA
HETATM   69  C1  SGN C 403      31.267  22.707 107.012  1.00 43.24     0.263 C 
HETATM   70  O3S SGN C 403      30.710  23.079 102.788  1.00 47.15    -0.577 OA
HETATM   71  O2S SGN C 403      28.729  21.847 103.419  1.00 45.22    -0.577 OA
HETATM   72  C2  SGN C 403      29.922  22.505 106.367  1.00 43.09     0.207 C 
HETATM   73  C6  SGN C 403      30.600  21.415 110.399  1.00 41.73     0.198 C 
HETATM   74  S2  SGN C 403      30.571  18.715 110.651  1.00 40.59     0.252 S 
HETATM   75  O62 IDS C 402      32.717  24.364 110.752  1.00 58.67    -0.646 OA
HETATM   76  C1  IDS C 402      33.035  27.352 107.204  1.00 56.44     0.269 C 
HETATM   77  O3S IDS C 402      32.110  28.543 104.190  1.00 48.48    -0.572 OA
HETATM   78  O3  IDS C 402      34.880  24.996 106.425  1.00 52.16    -0.218 OA
HETATM   79  O5  IDS C 402      32.270  26.708 108.191  1.00 58.25    -0.318 OA
HETATM   80  O4  IDS C 402      31.515  24.079 107.143  1.00 46.65    -0.326 OA
HETATM   81  O61 IDS C 402      30.902  25.273 110.132  1.00 56.13    -0.646 OA
HETATM   82  O1S IDS C 402      31.390  26.587 103.012  1.00 50.32    -0.572 OA
HETATM   83  O2S IDS C 402      29.942  27.635 104.571  1.00 49.77    -0.572 OA
HETATM   84  C3  IDS C 402      33.492  25.021 106.223  1.00 51.55     0.216 C 
HETATM   85  C5  IDS C 402      32.813  25.465 108.621  1.00 56.71     0.234 C 
HETATM   86  S   IDS C 402      31.279  27.364 104.217  1.00 50.69     0.252 S 
HETATM   87  C4  IDS C 402      32.826  24.439 107.464  1.00 52.03     0.189 C 
HETATM   88  C2  IDS C 402      33.079  26.478 105.952  1.00 53.67     0.226 C 
HETATM   89  C6  IDS C 402      32.104  25.009 109.916  1.00 57.74     0.216 C 
HETATM   90  O2  IDS C 402      31.807  26.453 105.366  1.00 51.35    -0.233 OA
ENDROOT
TORSDOF 29
