REMARK  0 active torsions:
REMARK  status: ('A' for Active; 'I' for Inactive)
REMARK       I    between atoms: C4_1046  and  O4_1052 
REMARK       I    between atoms: C2_1044  and  N_1049 
REMARK       I    between atoms: C5_1047  and  C6_1048 
REMARK       I    between atoms: N_1049  and  S1_1055 
REMARK       I    between atoms: O6_1054  and  C6_1048 
REMARK       I    between atoms: O6_1054  and  S2_1059 
REMARK       I    between atoms: C1_1028  and  O4_1052 
REMARK       I    between atoms: C4_1011  and  O4_1017 
REMARK       I    between atoms: C5_1012  and  C6_1013 
REMARK       I    between atoms: C2_1009  and  N_1014 
REMARK       I    between atoms: O1_1015  and  C1_1008 
REMARK       I    between atoms: O1_1015  and  C4_1031 
REMARK       I    between atoms: S1_1020  and  N_1014 
REMARK       I    between atoms: C6_1013  and  O6_1019 
REMARK       I    between atoms: O6_1019  and  S2_1024 
REMARK       I    between atoms: C1_993  and  O4_1017 
REMARK       I    between atoms: S_1039  and  O2_1034 
REMARK       I    between atoms: C5_1032  and  C6_1033 
REMARK       I    between atoms: O2_1034  and  C2_1029 
REMARK       I    between atoms: C6_998  and  C5_997 
REMARK       I    between atoms: S_1004  and  O2_999 
REMARK       I    between atoms: O2_999  and  C2_994 
ROOT
HETATM    1  C4  SGN A 304      -1.479   1.780  53.270  1.00 52.62     0.180 C 
HETATM    2  C2  SGN A 304      -2.975   2.992  54.913  1.00 58.33     0.210 C 
HETATM    3  O5S SGN A 304      -0.961  -2.294  55.649  1.00 74.65    -0.572 OA
HETATM    4  C5  SGN A 304      -2.675   0.849  53.016  1.00 58.09     0.179 C 
HETATM    5  N   SGN A 304      -3.636   4.280  55.109  1.00 60.63    -0.162 NA
HETATM    6  O4S SGN A 304      -0.230  -2.922  53.489  1.00 74.30    -0.572 OA
HETATM    7  O1S SGN A 304      -4.589   4.513  57.538  1.00 63.43    -0.577 OA
HETATM    8  O3S SGN A 304      -2.310   4.935  57.320  1.00 63.11    -0.577 OA
HETATM    9  O1  SGN A 304      -5.172   2.314  53.931  1.00 63.79    -0.188 OA
HETATM   10  O6  SGN A 304      -2.311  -1.427  53.544  1.00 70.77    -0.235 OA
HETATM   11  O4  SGN A 304      -0.698   1.991  52.063  1.00 43.19    -0.326 OA
HETATM   12  O5  SGN A 304      -3.435   0.686  54.234  1.00 60.17    -0.325 OA
HETATM   13  C3  SGN A 304      -2.089   3.126  53.683  1.00 54.75     0.210 C 
HETATM   14  C6  SGN A 304      -2.305  -0.506  52.459  1.00 64.16     0.198 C 
HETATM   15  O3  SGN A 304      -1.059   4.018  53.988  1.00 51.80    -0.218 OA
HETATM   16  O2S SGN A 304      -3.858   6.495  56.527  1.00 63.48    -0.577 OA
HETATM   17  C1  SGN A 304      -4.039   1.900  54.707  1.00 60.52     0.295 C 
HETATM   18  S1  SGN A 304      -3.594   5.097  56.697  1.00 64.60     0.227 S 
HETATM   19  O6S SGN A 304       0.111  -0.705  54.296  1.00 73.74    -0.572 OA
HETATM   20  S2  SGN A 304      -0.766  -1.852  54.290  1.00 74.57     0.252 S 
HETATM   21  C4  SGN A 302       6.813  -0.270  52.164  1.00 25.83     0.180 C 
HETATM   22  C5  SGN A 302       6.057   0.715  53.045  1.00 26.39     0.179 C 
HETATM   23  C2  SGN A 302       5.753   0.671  50.202  1.00 22.71     0.207 C 
HETATM   24  O1  SGN A 302       3.806   1.453  51.425  1.00 27.21    -0.326 OA
HETATM   25  C3  SGN A 302       5.993  -0.602  50.947  1.00 22.81     0.210 C 
HETATM   26  O1S SGN A 302       4.218   0.664  46.667  1.00 20.30    -0.577 OA
HETATM   27  S1  SGN A 302       5.033   1.274  47.703  1.00 21.60     0.227 S 
HETATM   28  O4S SGN A 302      10.048   3.389  53.849  1.00 42.71    -0.572 OA
HETATM   29  O3S SGN A 302       4.693   2.649  47.996  1.00 22.21    -0.577 OA
HETATM   30  C6  SGN A 302       6.899   1.132  54.221  1.00 29.34     0.198 C 
HETATM   31  O6S SGN A 302       8.390   3.407  55.495  1.00 41.33    -0.572 OA
HETATM   32  O5S SGN A 302       9.999   1.632  55.376  1.00 41.16    -0.572 OA
HETATM   33  O2S SGN A 302       6.396   1.112  47.326  1.00 20.78    -0.577 OA
HETATM   34  O6  SGN A 302       8.075   1.677  53.634  1.00 37.21    -0.235 OA
HETATM   35  O4  SGN A 302       6.953  -1.492  52.853  1.00 31.69    -0.326 OA
HETATM   36  O3  SGN A 302       6.742  -1.505  50.165  1.00 19.49    -0.218 OA
HETATM   37  N   SGN A 302       4.760   0.405  49.206  1.00 21.64    -0.162 NA
HETATM   38  S2  SGN A 302       9.194   2.571  54.642  1.00 40.20     0.252 S 
HETATM   39  C1  SGN A 302       5.149   1.714  51.111  1.00 23.84     0.263 C 
HETATM   40  O5  SGN A 302       5.914   1.873  52.284  1.00 23.64    -0.327 OA
HETATM   41  O61 IDS A 303       4.030   3.670  53.840  1.00 32.17    -0.646 OA
HETATM   42  O5  IDS A 303       1.515   1.384  52.851  1.00 30.39    -0.318 OA
HETATM   43  S   IDS A 303       1.119  -0.885  49.130  1.00 21.58     0.252 S 
HETATM   44  C1  IDS A 303       0.490   1.203  51.865  1.00 31.81     0.269 C 
HETATM   45  C5  IDS A 303       2.228   2.630  52.749  1.00 28.37     0.234 C 
HETATM   46  C6  IDS A 303       3.229   2.720  53.870  1.00 31.42     0.216 C 
HETATM   47  O3  IDS A 303       1.240   3.768  50.246  1.00 23.84    -0.218 OA
HETATM   48  O2S IDS A 303       0.873  -0.265  47.848  1.00 23.25    -0.572 OA
HETATM   49  O62 IDS A 303       3.336   1.747  54.634  1.00 33.48    -0.646 OA
HETATM   50  O1S IDS A 303       1.994  -2.013  48.991  1.00 22.46    -0.572 OA
HETATM   51  O2  IDS A 303       1.884   0.230  50.187  1.00 22.01    -0.233 OA
HETATM   52  C4  IDS A 303       2.994   2.636  51.440  1.00 27.35     0.189 C 
HETATM   53  C2  IDS A 303       1.123   1.351  50.475  1.00 27.61     0.226 C 
HETATM   54  C3  IDS A 303       1.999   2.592  50.291  1.00 26.24     0.216 C 
HETATM   55  O3S IDS A 303      -0.150  -1.220  49.633  1.00 20.82    -0.572 OA
HETATM   56  O1S UAP A 301       9.063  -2.438  57.214  1.00 46.38    -0.572 OA
HETATM   57  O61 UAP A 301       9.258  -5.132  50.386  1.00 42.15    -0.642 OA
HETATM   58  C1  UAP A 301       8.236  -1.815  53.345  1.00 34.23     0.273 C 
HETATM   59  O62 UAP A 301      10.352  -3.267  50.239  1.00 41.94    -0.642 OA
HETATM   60  O3S UAP A 301       8.437  -4.626  56.834  1.00 44.12    -0.572 OA
HETATM   61  C6  UAP A 301       9.498  -3.984  50.768  1.00 40.35     0.234 C 
HETATM   62  O3  UAP A 301       6.010  -4.043  53.417  1.00 38.04    -0.216 OA
HETATM   63  C3  UAP A 301       7.390  -4.151  53.652  1.00 38.05     0.210 C 
HETATM   64  S   UAP A 301       9.398  -3.615  56.490  1.00 45.34     0.252 S 
HETATM   65  O2  UAP A 301       9.261  -3.255  54.797  1.00 40.99    -0.232 OA
HETATM   66  C5  UAP A 301       8.850  -3.551  51.831  1.00 38.02     0.159 C 
HETATM   67  O2S UAP A 301      10.761  -4.020  56.741  1.00 44.19    -0.572 OA
HETATM   68  C2  UAP A 301       7.985  -2.915  54.333  1.00 36.54     0.228 C 
HETATM   69  C4  UAP A 301       8.037  -4.426  52.408  1.00 37.02     0.039 C 
HETATM   70  O5  UAP A 301       9.111  -2.319  52.330  1.00 34.12    -0.298 OA
ENDROOT
TORSDOF 22
