REMARK  0 active torsions:
REMARK  status: ('A' for Active; 'I' for Inactive)
REMARK       I    between atoms: C6_5012  and  C5_5011 
REMARK       I    between atoms: C6_5012  and  O6_5018 
REMARK       I    between atoms: S2_5023  and  O6_5018 
REMARK       I    between atoms: N_5013  and  C2_5008 
REMARK       I    between atoms: N_5013  and  S1_5019 
REMARK       I    between atoms: O4_5016  and  C4_5010 
REMARK       I    between atoms: O4_5016  and  C1_5027 
REMARK       I    between atoms: C4_5151  and  O4_5156 
REMARK       I    between atoms: N_5154  and  C2_5149 
REMARK       I    between atoms: N_5154  and  S1_5159 
REMARK       I    between atoms: C1_5148  and  O4_5140 
REMARK       I    between atoms: C5_5152  and  C6_5153 
REMARK       I    between atoms: O6_5158  and  C6_5153 
REMARK       I    between atoms: O6_5158  and  S2_5163 
REMARK       I    between atoms: C1_5167  and  O4_5156 
REMARK       I    between atoms: O6_5088  and  C6_5083 
REMARK       I    between atoms: O6_5088  and  S2_5093 
REMARK       I    between atoms: N_5084  and  C2_5079 
REMARK       I    between atoms: N_5084  and  S1_5089 
REMARK       I    between atoms: C6_5083  and  C5_5082 
REMARK       I    between atoms: C4_5081  and  O4_5086 
REMARK       I    between atoms: O4_5086  and  C1_5097 
REMARK       I    between atoms: C1_5078  and  O4_5070 
REMARK       I    between atoms: C1_5113  and  O4_5105 
REMARK       I    between atoms: N_5119  and  C2_5114 
REMARK       I    between atoms: N_5119  and  S1_5124 
REMARK       I    between atoms: C5_5117  and  C6_5118 
REMARK       I    between atoms: C4_5116  and  O4_5121 
REMARK       I    between atoms: S2_5128  and  O6_5123 
REMARK       I    between atoms: C1_5132  and  O4_5121 
REMARK       I    between atoms: O6_5123  and  C6_5118 
REMARK       I    between atoms: O4_5051  and  C4_5046 
REMARK       I    between atoms: O4_5051  and  C1_5062 
REMARK       I    between atoms: O6_5053  and  C6_5048 
REMARK       I    between atoms: O6_5053  and  S2_5058 
REMARK       I    between atoms: S1_5054  and  N_5049 
REMARK       I    between atoms: O4_5035  and  C1_5043 
REMARK       I    between atoms: N_5049  and  C2_5044 
REMARK       I    between atoms: C6_5048  and  C5_5047 
REMARK       I    between atoms: C4_5030  and  O4_5035 
REMARK       I    between atoms: S_5039  and  O2_5033 
REMARK       I    between atoms: C5_5031  and  C6_5032 
REMARK       I    between atoms: O2_5033  and  C2_5028 
REMARK       I    between atoms: C5_5101  and  C6_5102 
REMARK       I    between atoms: C2_5098  and  O2_5103 
REMARK       I    between atoms: O2_5103  and  S_5109 
REMARK       I    between atoms: O4_5105  and  C4_5100 
REMARK       I    between atoms: C5_5136  and  C6_5137 
REMARK       I    between atoms: C4_5135  and  O4_5140 
REMARK       I    between atoms: C2_5133  and  O2_5138 
REMARK       I    between atoms: S_5144  and  O2_5138 
REMARK       I    between atoms: O2_5173  and  C2_5168 
REMARK       I    between atoms: O2_5173  and  S_5178 
REMARK       I    between atoms: C5_5171  and  C6_5172 
REMARK       I    between atoms: S_5074  and  O2_5068 
REMARK       I    between atoms: C5_5066  and  C6_5067 
REMARK       I    between atoms: C4_5065  and  O4_5070 
REMARK       I    between atoms: O2_5068  and  C2_5063 
ROOT
HETATM    1  O1S SGN A 202      28.964 138.306  -1.658  1.00 93.72    -0.577 OA
HETATM    2  C6  SGN A 202      30.490 131.666  -2.450  1.00 96.92     0.198 C 
HETATM    3  S2  SGN A 202      28.012 130.500  -2.604  1.00104.74     0.252 S 
HETATM    4  N   SGN A 202      30.617 136.985  -0.237  1.00 92.78    -0.162 NA
HETATM    5  C1  SGN A 202      30.481 135.420  -2.170  1.00 94.33     0.295 C 
HETATM    6  O4  SGN A 202      31.477 132.118   0.408  1.00 89.37    -0.326 OA
HETATM    7  O2S SGN A 202      28.427 137.842   0.648  1.00 93.24    -0.577 OA
HETATM    8  C4  SGN A 202      30.697 133.122  -0.302  1.00 93.35     0.180 C 
HETATM    9  O6  SGN A 202      29.076 131.613  -2.239  1.00100.93    -0.235 OA
HETATM   10  O3S SGN A 202      30.180 139.391   0.089  1.00 92.71    -0.577 OA
HETATM   11  O6S SGN A 202      28.049 130.346  -4.048  1.00103.56    -0.572 OA
HETATM   12  O5  SGN A 202      30.196 134.063  -2.560  1.00 95.29    -0.325 OA
HETATM   13  C5  SGN A 202      30.948 133.022  -1.852  1.00 95.42     0.179 C 
HETATM   14  O5S SGN A 202      26.740 131.037  -2.137  1.00103.57    -0.572 OA
HETATM   15  O3  SGN A 202      30.936 134.683   1.550  1.00 93.65    -0.218 OA
HETATM   16  O1  SGN A 202      31.775 135.797  -2.592  1.00 94.63    -0.188 OA
HETATM   17  O4S SGN A 202      28.399 129.305  -1.885  1.00103.37    -0.572 OA
HETATM   18  C3  SGN A 202      31.151 134.536   0.153  1.00 92.97     0.210 C 
HETATM   19  C2  SGN A 202      30.280 135.581  -0.621  1.00 92.70     0.210 C 
HETATM   20  S1  SGN A 202      29.465 138.199  -0.304  1.00 95.37     0.227 S 
HETATM   21  C4  SGN A 210      19.353 108.744  14.052  1.00 74.34     0.180 C 
HETATM   22  N   SGN A 210      17.623 111.211  11.813  1.00 84.17    -0.162 NA
HETATM   23  C2  SGN A 210      18.352 110.002  12.194  1.00 78.14     0.207 C 
HETATM   24  C1  SGN A 210      19.728 109.920  11.399  1.00 75.88     0.263 C 
HETATM   25  O1S SGN A 210      16.354 111.323   9.667  1.00 88.63    -0.577 OA
HETATM   26  O3  SGN A 210      17.417 110.068  14.422  1.00 73.78    -0.218 OA
HETATM   27  C5  SGN A 210      20.713 108.688  13.237  1.00 74.15     0.179 C 
HETATM   28  O6  SGN A 210      20.868 106.296  12.978  1.00 68.61    -0.235 OA
HETATM   29  C6  SGN A 210      21.555 107.414  13.479  1.00 73.30     0.198 C 
HETATM   30  O6S SGN A 210      20.853 106.236  10.600  1.00 65.45    -0.572 OA
HETATM   31  S2  SGN A 210      21.243 105.456  11.742  1.00 67.91     0.252 S 
HETATM   32  O3S SGN A 210      15.370 112.140  11.700  1.00 89.28    -0.577 OA
HETATM   33  O5S SGN A 210      20.463 104.253  11.885  1.00 68.57    -0.572 OA
HETATM   34  O2S SGN A 210      15.636 109.773  11.378  1.00 90.25    -0.577 OA
HETATM   35  O4S SGN A 210      22.662 105.225  11.810  1.00 68.80    -0.572 OA
HETATM   36  S1  SGN A 210      16.155 111.094  11.083  1.00 89.06     0.227 S 
HETATM   37  O5  SGN A 210      20.437 108.746  11.790  1.00 73.87    -0.327 OA
HETATM   38  O4  SGN A 210      19.572 108.751  15.466  1.00 72.08    -0.326 OA
HETATM   39  C3  SGN A 210      18.631 110.016  13.704  1.00 75.40     0.210 C 
HETATM   40  O6  SGN A 206      23.896 121.049   5.787  1.00 80.70    -0.235 OA
HETATM   41  N   SGN A 206      22.054 126.164   8.489  1.00 86.61    -0.162 NA
HETATM   42  C6  SGN A 206      25.019 121.773   6.196  1.00 81.50     0.198 C 
HETATM   43  C4  SGN A 206      24.044 122.890   8.313  1.00 83.59     0.180 C 
HETATM   44  O2S SGN A 206      20.157 126.671  10.047  1.00 88.04    -0.577 OA
HETATM   45  C5  SGN A 206      24.570 123.086   6.851  1.00 83.77     0.179 C 
HETATM   46  O4  SGN A 206      25.097 122.418   9.131  1.00 82.24    -0.326 OA
HETATM   47  C1  SGN A 206      23.137 124.978   6.540  1.00 83.50     0.263 C 
HETATM   48  S2  SGN A 206      23.573 120.601   4.325  1.00 81.97     0.252 S 
HETATM   49  O5  SGN A 206      23.500 123.684   6.028  1.00 83.17    -0.327 OA
HETATM   50  C3  SGN A 206      23.580 124.249   8.878  1.00 83.83     0.210 C 
HETATM   51  O3  SGN A 206      23.075 124.063  10.193  1.00 84.07    -0.218 OA
HETATM   52  O3S SGN A 206      20.411 127.931   7.981  1.00 88.77    -0.577 OA
HETATM   53  O4S SGN A 206      24.545 119.582   3.961  1.00 80.88    -0.572 OA
HETATM   54  O6S SGN A 206      23.661 121.803   3.512  1.00 80.53    -0.572 OA
HETATM   55  O5S SGN A 206      22.232 120.087   4.395  1.00 81.32    -0.572 OA
HETATM   56  S1  SGN A 206      20.454 126.616   8.606  1.00 90.14     0.227 S 
HETATM   57  O1S SGN A 206      19.640 125.655   7.880  1.00 89.08    -0.577 OA
HETATM   58  C2  SGN A 206      22.465 124.825   7.960  1.00 84.08     0.207 C 
HETATM   59  C1  SGN A 208      25.174 118.083  13.476  1.00 77.34     0.263 C 
HETATM   60  N   SGN A 208      26.820 116.736  12.146  1.00 75.51    -0.162 NA
HETATM   61  O3  SGN A 208      24.710 114.899  11.513  1.00 78.23    -0.218 OA
HETATM   62  O4S SGN A 208      21.554 115.296  15.754  1.00 89.79    -0.572 OA
HETATM   63  C5  SGN A 208      22.824 117.609  13.334  1.00 80.93     0.179 C 
HETATM   64  C4  SGN A 208      23.111 116.163  12.795  1.00 78.97     0.180 C 
HETATM   65  S1  SGN A 208      28.289 116.932  12.882  1.00 76.92     0.227 S 
HETATM   66  O6S SGN A 208      20.235 116.841  17.074  1.00 88.16    -0.572 OA
HETATM   67  O5  SGN A 208      23.939 118.037  14.186  1.00 79.35    -0.327 OA
HETATM   68  O2S SGN A 208      29.246 117.066  11.791  1.00 74.38    -0.577 OA
HETATM   69  S2  SGN A 208      21.538 116.534  16.512  1.00 89.92     0.252 S 
HETATM   70  O1S SGN A 208      28.523 115.782  13.728  1.00 75.02    -0.577 OA
HETATM   71  O4  SGN A 208      22.080 115.747  11.910  1.00 76.39    -0.326 OA
HETATM   72  O6  SGN A 208      21.858 117.680  15.520  1.00 87.06    -0.235 OA
HETATM   73  C2  SGN A 208      25.552 116.666  12.926  1.00 76.94     0.207 C 
HETATM   74  C3  SGN A 208      24.417 116.199  12.003  1.00 77.86     0.210 C 
HETATM   75  O5S SGN A 208      22.604 116.613  17.491  1.00 89.72    -0.572 OA
HETATM   76  C6  SGN A 208      21.537 117.719  14.164  1.00 83.70     0.198 C 
HETATM   77  O3S SGN A 208      28.184 118.147  13.667  1.00 75.87    -0.577 OA
HETATM   78  O4  SGN A 204      28.099 128.759   7.479  1.00 79.25    -0.326 OA
HETATM   79  O5S SGN A 204      30.708 129.355  11.689  1.00 89.48    -0.572 OA
HETATM   80  O6  SGN A 204      30.186 129.880   9.409  1.00 87.49    -0.235 OA
HETATM   81  O1S SGN A 204      33.701 126.020   4.830  1.00 77.12    -0.577 OA
HETATM   82  O3  SGN A 204      29.027 126.399   5.990  1.00 80.05    -0.218 OA
HETATM   83  O2S SGN A 204      32.000 124.316   5.049  1.00 76.91    -0.577 OA
HETATM   84  O4S SGN A 204      28.560 130.365  11.177  1.00 90.13    -0.572 OA
HETATM   85  S1  SGN A 204      32.494 125.434   4.275  1.00 77.63     0.227 S 
HETATM   86  C1  SGN A 204      31.826 128.752   5.434  1.00 79.07     0.263 C 
HETATM   87  O6S SGN A 204      30.601 131.678  11.000  1.00 90.10    -0.572 OA
HETATM   88  O5  SGN A 204      31.659 129.536   6.650  1.00 80.56    -0.327 OA
HETATM   89  N   SGN A 204      31.306 126.595   4.330  1.00 77.61    -0.162 NA
HETATM   90  C6  SGN A 204      30.316 130.685   8.258  1.00 84.05     0.198 C 
HETATM   91  O3S SGN A 204      32.650 125.098   2.862  1.00 75.49    -0.577 OA
HETATM   92  C2  SGN A 204      31.129 127.380   5.585  1.00 78.72     0.207 C 
HETATM   93  C4  SGN A 204      29.516 128.442   7.199  1.00 80.82     0.180 C 
HETATM   94  C5  SGN A 204      30.285 129.789   7.013  1.00 82.42     0.179 C 
HETATM   95  C3  SGN A 204      29.649 127.635   5.857  1.00 79.90     0.210 C 
HETATM   96  S2  SGN A 204      29.991 130.355  10.906  1.00 91.13     0.252 S 
HETATM   97  C4  IDS A 203      32.016 130.509   3.713  1.00 81.18     0.189 C 
HETATM   98  C1  IDS A 203      30.807 130.990   0.981  1.00 85.78     0.269 C 
HETATM   99  O4  IDS A 203      31.260 129.443   4.302  1.00 79.59    -0.326 OA
HETATM  100  S   IDS A 203      31.032 127.441   0.250  1.00 90.12     0.252 S 
HETATM  101  O3  IDS A 203      33.820 130.864   2.140  1.00 83.57    -0.218 OA
HETATM  102  O62 IDS A 203      30.754 132.989   5.311  1.00 74.46    -0.646 OA
HETATM  103  C5  IDS A 203      31.038 131.677   3.320  1.00 80.26     0.234 C 
HETATM  104  O5  IDS A 203      30.160 131.258   2.241  1.00 82.78    -0.318 OA
HETATM  105  O3S IDS A 203      30.591 127.983  -1.004  1.00 87.64    -0.572 OA
HETATM  106  O61 IDS A 203      29.010 132.091   4.583  1.00 75.70    -0.646 OA
HETATM  107  O2S IDS A 203      30.080 126.504   0.815  1.00 89.08    -0.572 OA
HETATM  108  C3  IDS A 203      32.756 129.972   2.445  1.00 83.42     0.216 C 
HETATM  109  O2  IDS A 203      31.070 128.641   1.265  1.00 87.26    -0.233 OA
HETATM  110  C2  IDS A 203      31.831 129.837   1.179  1.00 84.28     0.226 C 
HETATM  111  C6  IDS A 203      30.213 132.288   4.472  1.00 77.29     0.216 C 
HETATM  112  O1S IDS A 203      32.380 126.915   0.185  1.00 90.48    -0.572 OA
HETATM  113  C5  IDS A 207      24.628 121.149  11.838  1.00 77.14     0.234 C 
HETATM  114  C2  IDS A 207      26.588 120.847   9.969  1.00 79.40     0.226 C 
HETATM  115  O2S IDS A 207      25.920 118.699   7.843  1.00 79.58    -0.572 OA
HETATM  116  O2  IDS A 207      27.411 120.378   8.882  1.00 79.52    -0.233 OA
HETATM  117  C6  IDS A 207      23.410 121.210  12.783  1.00 76.65     0.216 C 
HETATM  118  O1S IDS A 207      27.873 117.991   9.038  1.00 80.40    -0.572 OA
HETATM  119  C3  IDS A 207      26.647 119.801  11.056  1.00 78.95     0.216 C 
HETATM  120  O61 IDS A 207      22.391 120.565  12.532  1.00 77.21    -0.646 OA
HETATM  121  O4  IDS A 207      24.981 118.908  12.397  1.00 77.60    -0.326 OA
HETATM  122  O62 IDS A 207      23.422 121.885  13.795  1.00 74.58    -0.646 OA
HETATM  123  C4  IDS A 207      25.697 120.080  12.252  1.00 77.89     0.189 C 
HETATM  124  O3S IDS A 207      28.101 119.103   6.906  1.00 80.11    -0.572 OA
HETATM  125  S   IDS A 207      27.311 118.959   8.110  1.00 80.09     0.252 S 
HETATM  126  O3  IDS A 207      27.991 119.686  11.505  1.00 78.68    -0.218 OA
HETATM  127  O5  IDS A 207      24.181 120.814  10.503  1.00 78.76    -0.318 OA
HETATM  128  C1  IDS A 207      25.134 121.086   9.484  1.00 79.93     0.269 C 
HETATM  129  C5  IDS A 209      22.166 112.699  11.102  1.00 72.51     0.234 C 
HETATM  130  C6  IDS A 209      23.266 111.630  11.244  1.00 70.92     0.216 C 
HETATM  131  C4  IDS A 209      20.734 112.103  10.790  1.00 73.18     0.189 C 
HETATM  132  O3S IDS A 209      18.778 114.386  13.885  1.00 78.58    -0.572 OA
HETATM  133  O2S IDS A 209      16.843 114.714  12.453  1.00 79.35    -0.572 OA
HETATM  134  O3  IDS A 209      18.637 113.119  10.106  1.00 75.57    -0.218 OA
HETATM  135  C2  IDS A 209      20.180 114.571  11.235  1.00 75.19     0.226 C 
HETATM  136  O61 IDS A 209      23.573 110.919  10.304  1.00 71.40    -0.646 OA
HETATM  137  O62 IDS A 209      23.847 111.457  12.298  1.00 69.67    -0.646 OA
HETATM  138  S   IDS A 209      18.097 115.260  12.927  1.00 80.04     0.252 S 
HETATM  139  C1  IDS A 209      21.311 114.658  12.275  1.00 74.68     0.269 C 
HETATM  140  O2  IDS A 209      19.082 115.416  11.641  1.00 78.43    -0.233 OA
HETATM  141  O5  IDS A 209      22.089 113.460  12.335  1.00 73.06    -0.318 OA
HETATM  142  C3  IDS A 209      19.645 113.156  11.112  1.00 75.11     0.216 C 
HETATM  143  O1S IDS A 209      17.949 116.613  13.421  1.00 80.62    -0.572 OA
HETATM  144  O4  IDS A 209      20.544 111.034  11.714  1.00 73.54    -0.326 OA
HETATM  145  C4  IDS A 211      17.616 106.111  18.159  1.00 76.19     0.077 C 
HETATM  146  O2  IDS A 211      20.892 106.655  16.391  1.00 79.95    -0.233 OA
HETATM  147  C5  IDS A 211      17.205 107.672  18.144  1.00 77.07     0.207 C 
HETATM  148  O3  IDS A 211      19.749 105.001  18.319  1.00 72.80    -0.221 OA
HETATM  149  O3S IDS A 211      22.252 106.008  18.273  1.00 82.75    -0.572 OA
HETATM  150  O62 IDS A 211      15.199 108.902  18.751  1.00 80.95    -0.646 OA
HETATM  151  C1  IDS A 211      18.804 107.825  16.190  1.00 74.23     0.268 C 
HETATM  152  C6  IDS A 211      15.672 107.882  18.267  1.00 80.83     0.214 C 
HETATM  153  O2S IDS A 211      23.048 107.746  16.784  1.00 82.98    -0.572 OA
HETATM  154  O61 IDS A 211      14.888 107.011  17.895  1.00 80.33    -0.646 OA
HETATM  155  O5  IDS A 211      17.728 108.425  16.935  1.00 75.07    -0.320 OA
HETATM  156  O1S IDS A 211      22.925 105.460  16.019  1.00 82.07    -0.572 OA
HETATM  157  C3  IDS A 211      18.961 105.783  17.454  1.00 74.59     0.189 C 
HETATM  158  S   IDS A 211      22.367 106.468  16.908  1.00 83.69     0.252 S 
HETATM  159  C2  IDS A 211      19.709 107.031  17.094  1.00 76.21     0.224 C 
HETATM  160  S   IDS A 205      25.106 128.200  10.825  1.00 81.15     0.252 S 
HETATM  161  C3  IDS A 205      24.625 127.629   7.907  1.00 79.63     0.216 C 
HETATM  162  C1  IDS A 205      27.179 127.788   8.012  1.00 79.63     0.269 C 
HETATM  163  O61 IDS A 205      26.956 124.794   5.143  1.00 77.07    -0.646 OA
HETATM  164  O5  IDS A 205      26.994 126.667   7.132  1.00 78.79    -0.318 OA
HETATM  165  O2S IDS A 205      25.477 126.802  10.706  1.00 78.96    -0.572 OA
HETATM  166  C5  IDS A 205      26.106 126.920   5.986  1.00 78.65     0.234 C 
HETATM  167  C4  IDS A 205      24.643 126.939   6.522  1.00 80.08     0.189 C 
HETATM  168  C6  IDS A 205      26.351 125.836   4.880  1.00 77.42     0.216 C 
HETATM  169  O1S IDS A 205      23.664 128.389  10.768  1.00 80.50    -0.572 OA
HETATM  170  O2  IDS A 205      25.687 128.994   9.539  1.00 79.01    -0.233 OA
HETATM  171  O3S IDS A 205      25.713 128.855  11.960  1.00 80.68    -0.572 OA
HETATM  172  O62 IDS A 205      25.947 125.982   3.740  1.00 76.44    -0.646 OA
HETATM  173  O3  IDS A 205      23.432 128.377   8.041  1.00 80.30    -0.218 OA
HETATM  174  C2  IDS A 205      25.829 128.540   8.192  1.00 79.20     0.226 C 
HETATM  175  O4  IDS A 205      24.382 125.613   6.763  1.00 82.37    -0.326 OA
ENDROOT
TORSDOF 58
