REMARK  0 active torsions:
REMARK  status: ('A' for Active; 'I' for Inactive)
REMARK       I    between atoms: S_5442  and  O2_5437 
REMARK       I    between atoms: O2_5437  and  C2_5432 
REMARK       I    between atoms: C1_5431  and  O4_5455 
REMARK       I    between atoms: C4_5434  and  O1_5418 
REMARK       I    between atoms: C5_5435  and  C6_5436 
REMARK       I    between atoms: C2_5482  and  N_5487 
REMARK       I    between atoms: C6_5486  and  C5_5485 
REMARK       I    between atoms: C6_5486  and  O6_5492 
REMARK       I    between atoms: S2_5497  and  O6_5492 
REMARK       I    between atoms: S1_5493  and  N_5487 
REMARK       I    between atoms: C1_5466  and  O4_5490 
REMARK       I    between atoms: O4_5490  and  C4_5484 
REMARK       I    between atoms: C2_5397  and  O2_5402 
REMARK       I    between atoms: S_5407  and  O2_5402 
REMARK       I    between atoms: C1_5396  and  O4_5420 
REMARK       I    between atoms: C5_5400  and  C6_5401 
REMARK       I    between atoms: C6_5471  and  C5_5470 
REMARK       I    between atoms: C2_5467  and  O2_5472 
REMARK       I    between atoms: S_5477  and  O2_5472 
REMARK       I    between atoms: O1_5453  and  C4_5469 
REMARK       I    between atoms: O6_5457  and  C6_5451 
REMARK       I    between atoms: O6_5457  and  S2_5462 
REMARK       I    between atoms: N_5452  and  C2_5447 
REMARK       I    between atoms: N_5452  and  S1_5458 
REMARK       I    between atoms: C6_5451  and  C5_5450 
REMARK       I    between atoms: O1_5453  and  C1_5446 
REMARK       I    between atoms: C4_5449  and  O4_5455 
REMARK       I    between atoms: C4_5414  and  O4_5420 
REMARK       I    between atoms: C1_5411  and  O1_5418 
REMARK       I    between atoms: C5_5415  and  C6_5416 
REMARK       I    between atoms: C6_5416  and  O6_5422 
REMARK       I    between atoms: S1_5423  and  N_5417 
REMARK       I    between atoms: N_5417  and  C2_5412 
REMARK       I    between atoms: S2_5427  and  O6_5422 
ROOT
HETATM    1  S   IDS B 303     108.352  31.717 113.995  1.00 72.65     0.252 S 
HETATM    2  O2  IDS B 303     107.466  30.848 115.233  1.00 70.90    -0.233 OA
HETATM    3  O61 IDS B 303     104.249  30.076 119.892  1.00 68.58    -0.646 OA
HETATM    4  O3  IDS B 303     108.601  29.380 118.269  1.00 67.20    -0.218 OA
HETATM    5  O3S IDS B 303     109.694  31.189 113.998  1.00 72.24    -0.572 OA
HETATM    6  C1  IDS B 303     107.518  32.140 117.252  1.00 68.15     0.269 C 
HETATM    7  C4  IDS B 303     106.278  29.394 117.582  1.00 66.93     0.189 C 
HETATM    8  O2S IDS B 303     107.694  31.508 112.735  1.00 71.79    -0.572 OA
HETATM    9  C3  IDS B 303     107.764  29.547 117.185  1.00 67.51     0.216 C 
HETATM   10  C5  IDS B 303     105.816  30.692 118.239  1.00 67.68     0.234 C 
HETATM   11  C6  IDS B 303     104.419  30.583 118.781  1.00 67.90     0.216 C 
HETATM   12  O62 IDS B 303     103.540  31.207 118.156  1.00 67.36    -0.646 OA
HETATM   13  O5  IDS B 303     106.176  31.938 117.672  1.00 67.81    -0.318 OA
HETATM   14  C2  IDS B 303     108.038  30.897 116.500  1.00 68.37     0.226 C 
HETATM   15  O1S IDS B 303     108.334  33.100 114.344  1.00 72.30    -0.572 OA
HETATM   16  C3  SGN B 306     116.348  38.190 121.087  1.00 92.77     0.210 C 
HETATM   17  O1S SGN B 306     116.050  40.865 118.573  1.00 95.81    -0.577 OA
HETATM   18  O4S SGN B 306     118.432  31.404 119.391  1.00 98.26    -0.572 OA
HETATM   19  O5S SGN B 306     116.092  31.698 119.560  1.00 97.62    -0.572 OA
HETATM   20  C2  SGN B 306     117.364  38.431 119.981  1.00 93.98     0.210 C 
HETATM   21  O5  SGN B 306     118.136  36.144 120.206  1.00 94.12    -0.325 OA
HETATM   22  C6  SGN B 306     116.835  34.380 121.246  1.00 94.87     0.198 C 
HETATM   23  S2  SGN B 306     117.365  31.974 120.164  1.00 97.88     0.252 S 
HETATM   24  S1  SGN B 306     117.449  40.946 118.910  1.00 96.13     0.227 S 
HETATM   25  O3S SGN B 306     117.772  42.270 119.380  1.00 95.61    -0.577 OA
HETATM   26  O4  SGN B 306     114.946  36.492 122.082  1.00 86.82    -0.326 OA
HETATM   27  O3  SGN B 306     115.244  39.053 120.887  1.00 92.88    -0.218 OA
HETATM   28  O6S SGN B 306     117.385  31.467 121.513  1.00 97.81    -0.572 OA
HETATM   29  C5  SGN B 306     117.170  35.861 121.263  1.00 93.29     0.179 C 
HETATM   30  O1  SGN B 306     119.344  37.901 121.260  1.00 94.56    -0.188 OA
HETATM   31  N   SGN B 306     117.822  39.779 120.171  1.00 94.95    -0.162 NA
HETATM   32  O6  SGN B 306     117.556  33.718 120.230  1.00 96.78    -0.235 OA
HETATM   33  C4  SGN B 306     115.909  36.723 121.037  1.00 91.41     0.180 C 
HETATM   34  O2S SGN B 306     118.258  40.608 117.780  1.00 95.76    -0.577 OA
HETATM   35  C1  SGN B 306     118.590  37.514 120.116  1.00 94.38     0.295 C 
HETATM   36  C2  UAP B 301      98.807  28.703 115.513  1.00 59.18     0.224 C 
HETATM   37  S   UAP B 301      96.936  27.106 116.421  1.00 55.27     0.252 S 
HETATM   38  O1S UAP B 301      95.554  27.086 116.136  1.00 55.53    -0.572 OA
HETATM   39  C1  UAP B 301     100.021  28.298 114.703  1.00 60.21     0.268 C 
HETATM   40  O61 UAP B 301      98.970  31.820 111.522  1.00 61.14    -0.646 OA
HETATM   41  C5  UAP B 301      99.437  30.109 113.148  1.00 60.87     0.207 C 
HETATM   42  O3  UAP B 301      99.018  30.808 116.556  1.00 59.13    -0.221 OA
HETATM   43  O2  UAP B 301      97.716  27.947 115.111  1.00 57.24    -0.233 OA
HETATM   44  O5  UAP B 301      99.988  28.825 113.381  1.00 59.97    -0.320 OA
HETATM   45  C6  UAP B 301      99.491  30.709 111.748  1.00 61.61     0.214 C 
HETATM   46  O62 UAP B 301     100.047  30.013 110.871  1.00 62.55    -0.646 OA
HETATM   47  O3S UAP B 301      97.489  25.787 116.422  1.00 56.16    -0.572 OA
HETATM   48  O2S UAP B 301      97.176  27.801 117.662  1.00 55.16    -0.572 OA
HETATM   49  C3  UAP B 301      98.370  30.176 115.497  1.00 59.86     0.189 C 
HETATM   50  C4  UAP B 301      98.655  30.935 114.171  1.00 60.44     0.077 C 
HETATM   51  O5  IDS B 305     113.037  35.994 120.689  1.00 79.32    -0.318 OA
HETATM   52  O62 IDS B 305     111.545  36.840 118.510  1.00 76.71    -0.646 OA
HETATM   53  C1  IDS B 305     113.823  35.637 121.828  1.00 81.39     0.269 C 
HETATM   54  O3  IDS B 305     111.771  37.366 123.958  1.00 77.13    -0.218 OA
HETATM   55  C6  IDS B 305     111.251  37.386 119.598  1.00 77.58     0.216 C 
HETATM   56  C2  IDS B 305     112.983  35.513 123.127  1.00 79.04     0.226 C 
HETATM   57  C5  IDS B 305     111.894  36.795 120.853  1.00 77.61     0.234 C 
HETATM   58  C3  IDS B 305     111.607  36.191 123.269  1.00 77.33     0.216 C 
HETATM   59  S   IDS B 305     112.594  32.792 123.038  1.00 76.19     0.252 S 
HETATM   60  C4  IDS B 305     110.881  36.447 121.934  1.00 76.34     0.189 C 
HETATM   61  O3S IDS B 305     112.905  31.736 123.930  1.00 74.84    -0.572 OA
HETATM   62  O1S IDS B 305     113.325  32.639 121.831  1.00 76.90    -0.572 OA
HETATM   63  O2  IDS B 305     113.103  34.288 123.838  1.00 77.82    -0.233 OA
HETATM   64  O61 IDS B 305     110.312  38.190 119.723  1.00 76.93    -0.646 OA
HETATM   65  O2S IDS B 305     111.202  32.849 122.777  1.00 76.37    -0.572 OA
HETATM   66  O6  SGN B 304     106.959  35.487 117.673  1.00 75.07    -0.235 OA
HETATM   67  S2  SGN B 304     106.177  36.048 116.214  1.00 76.52     0.252 S 
HETATM   68  O5S SGN B 304     104.756  35.906 116.395  1.00 76.86    -0.572 OA
HETATM   69  N   SGN B 304     108.671  33.544 122.925  1.00 67.56    -0.162 NA
HETATM   70  O3S SGN B 304     106.770  33.896 124.667  1.00 66.52    -0.577 OA
HETATM   71  C6  SGN B 304     108.378  35.353 117.661  1.00 73.59     0.198 C 
HETATM   72  O3  SGN B 304     107.834  31.733 120.961  1.00 68.02    -0.218 OA
HETATM   73  C5  SGN B 304     108.774  34.776 118.997  1.00 71.82     0.179 C 
HETATM   74  O2S SGN B 304     108.954  33.683 125.465  1.00 65.16    -0.577 OA
HETATM   75  O1  SGN B 304     110.177  35.272 121.513  1.00 74.14    -0.326 OA
HETATM   76  O4S SGN B 304     106.516  37.422 116.001  1.00 77.29    -0.572 OA
HETATM   77  C1  SGN B 304     108.758  35.371 121.362  1.00 71.67     0.263 C 
HETATM   78  C3  SGN B 304     108.481  32.951 120.646  1.00 69.60     0.210 C 
HETATM   79  C2  SGN B 304     108.098  34.009 121.686  1.00 69.86     0.207 C 
HETATM   80  S1  SGN B 304     108.136  34.247 124.446  1.00 65.45     0.227 S 
HETATM   81  O6S SGN B 304     106.626  35.226 115.113  1.00 75.80    -0.572 OA
HETATM   82  O1S SGN B 304     108.274  35.675 124.423  1.00 65.89    -0.577 OA
HETATM   83  O5  SGN B 304     108.402  35.740 120.017  1.00 72.13    -0.327 OA
HETATM   84  C4  SGN B 304     108.041  33.447 119.274  1.00 70.26     0.180 C 
HETATM   85  O4  SGN B 304     108.414  32.461 118.300  1.00 69.19    -0.326 OA
HETATM   86  O5S SGN B 302     101.915  24.101 119.829  1.00 70.37    -0.572 OA
HETATM   87  C4  SGN B 302     102.322  28.099 115.374  1.00 62.45     0.180 C 
HETATM   88  O1S SGN B 302     105.804  28.719 111.191  1.00 62.46    -0.577 OA
HETATM   89  O3  SGN B 302     102.818  28.997 113.210  1.00 61.52    -0.218 OA
HETATM   90  O2S SGN B 302     106.119  26.740 112.444  1.00 63.02    -0.577 OA
HETATM   91  C1  SGN B 302     105.155  27.927 115.947  1.00 63.73     0.263 C 
HETATM   92  C5  SGN B 302     102.858  27.973 116.793  1.00 63.81     0.179 C 
HETATM   93  O3S SGN B 302     107.781  28.395 112.461  1.00 62.68    -0.577 OA
HETATM   94  O5  SGN B 302     104.136  27.284 116.758  1.00 63.54    -0.327 OA
HETATM   95  C6  SGN B 302     101.853  27.216 117.650  1.00 65.04     0.198 C 
HETATM   96  S1  SGN B 302     106.362  28.149 112.392  1.00 63.33     0.227 S 
HETATM   97  O4S SGN B 302     102.784  26.112 120.715  1.00 70.06    -0.572 OA
HETATM   98  O6S SGN B 302     100.540  25.998 119.966  1.00 69.58    -0.572 OA
HETATM   99  O4  SGN B 302     101.113  28.799 115.419  1.00 61.75    -0.326 OA
HETATM  100  N   SGN B 302     105.565  28.873 113.795  1.00 63.41    -0.162 NA
HETATM  101  C3  SGN B 302     103.314  28.875 114.531  1.00 62.34     0.210 C 
HETATM  102  C2  SGN B 302     104.608  28.077 114.525  1.00 63.09     0.207 C 
HETATM  103  S2  SGN B 302     101.889  25.536 119.751  1.00 69.96     0.252 S 
HETATM  104  O6  SGN B 302     102.397  26.010 118.138  1.00 67.47    -0.235 OA
HETATM  105  O1  SGN B 302     105.468  29.240 116.411  1.00 64.90    -0.326 OA
ENDROOT
TORSDOF 34
