REMARK  0 active torsions:
REMARK  status: ('A' for Active; 'I' for Inactive)
REMARK       I    between atoms: C5_5275  and  C6_5276 
REMARK       I    between atoms: O1_5278  and  C1_5271 
REMARK       I    between atoms: O1_5278  and  C4_5294 
REMARK       I    between atoms: C2_5272  and  N_5277 
REMARK       I    between atoms: O4_5280  and  C1_5256 
REMARK       I    between atoms: O4_5280  and  C4_5274 
REMARK       I    between atoms: N_5277  and  S1_5283 
REMARK       I    between atoms: O6_5282  and  C6_5276 
REMARK       I    between atoms: O6_5282  and  S2_5287 
REMARK       I    between atoms: C5_5310  and  C6_5311 
REMARK       I    between atoms: S2_5322  and  O6_5317 
REMARK       I    between atoms: C4_5309  and  O4_5315 
REMARK       I    between atoms: O4_5315  and  C1_5291 
REMARK       I    between atoms: C6_5311  and  O6_5317 
REMARK       I    between atoms: C2_5307  and  N_5312 
REMARK       I    between atoms: N_5312  and  S1_5318 
REMARK       I    between atoms: C1_5306  and  O1_5313 
REMARK       I    between atoms: C4_5329  and  O1_5313 
REMARK       I    between atoms: S1_5388  and  N_5382 
REMARK       I    between atoms: C2_5377  and  N_5382 
REMARK       I    between atoms: C6_5381  and  C5_5380 
REMARK       I    between atoms: C6_5381  and  O6_5387 
REMARK       I    between atoms: O6_5387  and  S2_5392 
REMARK       I    between atoms: O4_5385  and  C1_5361 
REMARK       I    between atoms: O4_5385  and  C4_5379 
REMARK       I    between atoms: C2_5362  and  O2_5367 
REMARK       I    between atoms: S_5372  and  O2_5367 
REMARK       I    between atoms: O1_5348  and  C4_5364 
REMARK       I    between atoms: C5_5365  and  C6_5366 
REMARK       I    between atoms: S_5267  and  O2_5262 
REMARK       I    between atoms: C5_5260  and  C6_5261 
REMARK       I    between atoms: O2_5262  and  C2_5257 
REMARK       I    between atoms: S1_5353  and  N_5347 
REMARK       I    between atoms: C4_5344  and  O4_5350 
REMARK       I    between atoms: O1_5348  and  C1_5341 
REMARK       I    between atoms: C2_5342  and  N_5347 
REMARK       I    between atoms: S2_5357  and  O6_5352 
REMARK       I    between atoms: O6_5352  and  C6_5346 
REMARK       I    between atoms: C1_5326  and  O4_5350 
REMARK       I    between atoms: C6_5346  and  C5_5345 
REMARK       I    between atoms: O2_5332  and  C2_5327 
REMARK       I    between atoms: O2_5332  and  S_5337 
REMARK       I    between atoms: C6_5331  and  C5_5330 
REMARK       I    between atoms: C6_5296  and  C5_5295 
REMARK       I    between atoms: S_5302  and  O2_5297 
REMARK       I    between atoms: C2_5292  and  O2_5297 
ROOT
HETATM    1  C5  SGN A 302      86.252  29.030 111.433  1.00 62.08     0.179 C 
HETATM    2  O1  SGN A 302      85.336  28.797 108.607  1.00 57.67    -0.326 OA
HETATM    3  C2  SGN A 302      86.980  30.469 109.045  1.00 61.19     0.207 C 
HETATM    4  O1S SGN A 302      88.253  30.698 105.384  1.00 64.09    -0.577 OA
HETATM    5  O3  SGN A 302      89.255  30.179 109.543  1.00 61.47    -0.218 OA
HETATM    6  O4  SGN A 302      88.583  28.824 111.997  1.00 62.67    -0.326 OA
HETATM    7  O2S SGN A 302      88.417  32.279 107.136  1.00 64.71    -0.577 OA
HETATM    8  O5S SGN A 302      84.689  30.805 115.073  1.00 67.23    -0.572 OA
HETATM    9  C1  SGN A 302      85.544  30.012 109.293  1.00 59.95     0.263 C 
HETATM   10  O3S SGN A 302      86.325  31.894 106.106  1.00 64.03    -0.577 OA
HETATM   11  O4S SGN A 302      86.888  31.639 115.332  1.00 67.96    -0.572 OA
HETATM   12  N   SGN A 302      87.266  30.069 107.698  1.00 63.09    -0.162 NA
HETATM   13  O6  SGN A 302      86.570  29.558 113.790  1.00 65.61    -0.235 OA
HETATM   14  C6  SGN A 302      85.740  28.878 112.866  1.00 64.01     0.198 C 
HETATM   15  C3  SGN A 302      87.977  29.647 109.816  1.00 61.38     0.210 C 
HETATM   16  S2  SGN A 302      85.941  31.073 114.414  1.00 67.90     0.252 S 
HETATM   17  O5  SGN A 302      85.320  29.879 110.711  1.00 60.78    -0.327 OA
HETATM   18  C4  SGN A 302      87.648  29.644 111.312  1.00 61.63     0.180 C 
HETATM   19  O6S SGN A 302      85.711  31.961 113.296  1.00 68.34    -0.572 OA
HETATM   20  S1  SGN A 302      87.582  31.301 106.509  1.00 65.45     0.227 S 
HETATM   21  C5  SGN A 304      83.109  23.016 105.462  1.00 49.42     0.179 C 
HETATM   22  S2  SGN A 304      86.853  22.131 105.588  1.00 51.11     0.252 S 
HETATM   23  C3  SGN A 304      81.747  23.755 107.381  1.00 47.93     0.210 C 
HETATM   24  O3S SGN A 304      80.698  20.366 109.953  1.00 44.44    -0.577 OA
HETATM   25  C4  SGN A 304      83.127  23.856 106.733  1.00 49.15     0.180 C 
HETATM   26  O4  SGN A 304      83.367  25.205 106.393  1.00 51.21    -0.326 OA
HETATM   27  O4S SGN A 304      86.931  21.899 106.992  1.00 51.24    -0.572 OA
HETATM   28  O1S SGN A 304      79.524  19.669 108.047  1.00 44.55    -0.577 OA
HETATM   29  O6S SGN A 304      87.666  21.200 104.855  1.00 51.12    -0.572 OA
HETATM   30  C6  SGN A 304      84.437  23.055 104.739  1.00 50.81     0.198 C 
HETATM   31  O3  SGN A 304      81.711  24.514 108.570  1.00 47.60    -0.218 OA
HETATM   32  O6  SGN A 304      85.190  21.894 105.071  1.00 51.13    -0.235 OA
HETATM   33  O5S SGN A 304      87.273  23.479 105.279  1.00 50.78    -0.572 OA
HETATM   34  C2  SGN A 304      81.501  22.296 107.718  1.00 47.03     0.207 C 
HETATM   35  N   SGN A 304      80.154  22.210 108.204  1.00 44.94    -0.162 NA
HETATM   36  O5  SGN A 304      82.825  21.647 105.816  1.00 48.75    -0.327 OA
HETATM   37  C1  SGN A 304      81.558  21.436 106.450  1.00 48.09     0.263 C 
HETATM   38  S1  SGN A 304      79.692  20.719 109.004  1.00 43.75     0.227 S 
HETATM   39  O1  SGN A 304      80.507  21.829 105.597  1.00 49.61    -0.326 OA
HETATM   40  O2S SGN A 304      78.469  20.955 109.671  1.00 45.41    -0.577 OA
HETATM   41  O2S SGN A 308      70.702  11.861 100.491  1.00100.00    -0.577 OA
HETATM   42  S1  SGN A 308      70.796  12.077  99.078  1.00100.00     0.227 S 
HETATM   43  C2  SGN A 308      70.280  14.238  97.428  1.00 99.44     0.210 C 
HETATM   44  O1  SGN A 308      68.182  15.458  97.550  1.00 98.76    -0.188 OA
HETATM   45  O3S SGN A 308      72.191  12.099  98.683  1.00100.00    -0.577 OA
HETATM   46  O5  SGN A 308      69.275  15.192  95.432  1.00 99.29    -0.325 OA
HETATM   47  O4S SGN A 308      72.974  17.692  92.335  1.00100.00    -0.572 OA
HETATM   48  C6  SGN A 308      70.550  16.705  93.975  1.00 99.87     0.198 C 
HETATM   49  C5  SGN A 308      70.262  16.281  95.422  1.00 99.43     0.179 C 
HETATM   50  O6  SGN A 308      71.462  15.773  93.359  1.00100.00    -0.235 OA
HETATM   51  S2  SGN A 308      73.069  16.345  92.814  1.00100.00     0.252 S 
HETATM   52  O5S SGN A 308      73.524  15.489  91.754  1.00100.00    -0.572 OA
HETATM   53  O6S SGN A 308      73.995  16.251  93.919  1.00100.00    -0.572 OA
HETATM   54  C3  SGN A 308      71.230  15.425  97.579  1.00 98.94     0.210 C 
HETATM   55  O4  SGN A 308      72.525  16.961  96.152  1.00 97.66    -0.326 OA
HETATM   56  C1  SGN A 308      68.960  14.597  96.723  1.00 99.27     0.295 C 
HETATM   57  N   SGN A 308      70.034  13.657  98.730  1.00100.00    -0.162 NA
HETATM   58  O3  SGN A 308      72.417  15.023  98.235  1.00 98.80    -0.218 OA
HETATM   59  O1S SGN A 308      70.100  11.035  98.359  1.00100.00    -0.577 OA
HETATM   60  C4  SGN A 308      71.568  15.862  96.155  1.00 98.86     0.180 C 
HETATM   61  C2  IDU A 307      72.830  19.354  95.858  1.00 95.84     0.226 C 
HETATM   62  S   IDU A 307      71.964  20.971  93.893  1.00 99.14     0.252 S 
HETATM   63  C4  IDU A 307      75.112  19.348  96.886  1.00 90.88     0.189 C 
HETATM   64  O2  IDU A 307      72.130  19.379  94.635  1.00 97.97    -0.233 OA
HETATM   65  O2S IDU A 307      72.260  21.983  94.867  1.00 99.37    -0.572 OA
HETATM   66  C5  IDU A 307      74.397  18.609  98.041  1.00 92.32     0.234 C 
HETATM   67  O62 IDU A 307      75.791  17.722  99.714  1.00 91.98    -0.646 OA
HETATM   68  O5  IDU A 307      72.976  18.382  98.036  1.00 94.88    -0.318 OA
HETATM   69  C6  IDU A 307      75.279  17.508  98.595  1.00 92.52     0.216 C 
HETATM   70  O3S IDU A 307      70.607  21.050  93.419  1.00 98.48    -0.572 OA
HETATM   71  O3  IDU A 307      74.772  20.060  94.623  1.00 94.10    -0.218 OA
HETATM   72  O61 IDU A 307      75.561  16.537  97.871  1.00 92.33    -0.646 OA
HETATM   73  C1  IDU A 307      72.279  18.240  96.784  1.00 96.24     0.269 C 
HETATM   74  C3  IDU A 307      74.332  19.161  95.582  1.00 93.47     0.216 C 
HETATM   75  O1S IDU A 307      72.890  21.048  92.810  1.00 98.75    -0.572 OA
HETATM   76  C3  UAP A 301      90.946  27.112 112.925  1.00 62.24     0.189 C 
HETATM   77  O5  UAP A 301      90.709  29.845 111.772  1.00 63.82    -0.320 OA
HETATM   78  O2S UAP A 301      90.379  27.294 116.521  1.00 64.36    -0.572 OA
HETATM   79  O1S UAP A 301      91.331  29.356 117.028  1.00 65.60    -0.572 OA
HETATM   80  S   UAP A 301      90.439  28.680 116.168  1.00 64.50     0.252 S 
HETATM   81  C1  UAP A 301      89.695  29.398 112.682  1.00 63.54     0.268 C 
HETATM   82  O3S UAP A 301      89.143  29.305 116.174  1.00 64.82    -0.572 OA
HETATM   83  O61 UAP A 301      93.422  28.554 109.673  1.00 64.29    -0.646 OA
HETATM   84  C5  UAP A 301      91.599  28.911 111.202  1.00 63.58     0.207 C 
HETATM   85  O3  UAP A 301      89.993  26.161 112.613  1.00 61.50    -0.221 OA
HETATM   86  C6  UAP A 301      92.601  29.362 110.148  1.00 63.95     0.214 C 
HETATM   87  O2  UAP A 301      91.074  28.825 114.542  1.00 63.89    -0.233 OA
HETATM   88  C4  UAP A 301      91.754  27.465 111.652  1.00 63.28     0.077 C 
HETATM   89  C2  UAP A 301      90.219  28.287 113.582  1.00 63.25     0.224 C 
HETATM   90  O62 UAP A 301      92.562  30.567 109.836  1.00 64.45    -0.646 OA
HETATM   91  O4S SGN A 306      71.559  20.739 101.017  1.00 90.53    -0.572 OA
HETATM   92  S1  SGN A 306      78.843  21.123  95.936  1.00 78.57     0.227 S 
HETATM   93  C3  SGN A 306      78.032  21.143  99.609  1.00 75.30     0.210 C 
HETATM   94  C4  SGN A 306      77.288  21.952 100.677  1.00 73.84     0.180 C 
HETATM   95  O1S SGN A 306      78.155  22.293  95.431  1.00 77.70    -0.577 OA
HETATM   96  O3S SGN A 306      80.207  21.447  96.268  1.00 78.09    -0.577 OA
HETATM   97  O1  SGN A 306      75.248  20.746  97.229  1.00 84.95    -0.326 OA
HETATM   98  O6S SGN A 306      73.333  19.905 102.380  1.00 90.36    -0.572 OA
HETATM   99  C2  SGN A 306      77.399  21.441  98.268  1.00 77.68     0.207 C 
HETATM  100  O2S SGN A 306      78.825  20.069  94.973  1.00 78.53    -0.577 OA
HETATM  101  C1  SGN A 306      75.940  21.020  98.416  1.00 79.80     0.263 C 
HETATM  102  O5S SGN A 306      71.902  21.592 103.187  1.00 90.80    -0.572 OA
HETATM  103  O3  SGN A 306      79.398  21.513  99.581  1.00 73.95    -0.218 OA
HETATM  104  S2  SGN A 306      72.546  21.070 102.013  1.00 90.76     0.252 S 
HETATM  105  O6  SGN A 306      73.619  22.334 101.353  1.00 88.08    -0.235 OA
HETATM  106  O4  SGN A 306      77.851  21.619 101.919  1.00 66.36    -0.326 OA
HETATM  107  N   SGN A 306      78.017  20.505  97.368  1.00 78.10    -0.162 NA
HETATM  108  O5  SGN A 306      75.284  21.838  99.363  1.00 78.51    -0.327 OA
HETATM  109  C6  SGN A 306      75.005  22.335 101.711  1.00 83.03     0.198 C 
HETATM  110  C5  SGN A 306      75.801  21.551 100.672  1.00 78.14     0.179 C 
HETATM  111  O2  IDS A 305      78.061  23.099 105.152  1.00 54.98    -0.233 OA
HETATM  112  O5  IDS A 305      79.769  22.661 102.758  1.00 55.66    -0.318 OA
HETATM  113  O1S IDS A 305      77.280  22.401 107.454  1.00 53.89    -0.572 OA
HETATM  114  C2  IDS A 305      77.902  22.106 104.184  1.00 56.10     0.226 C 
HETATM  115  O61 IDS A 305      82.239  20.045 102.789  1.00 52.66    -0.646 OA
HETATM  116  O3  IDS A 305      78.140  19.765 103.866  1.00 52.50    -0.218 OA
HETATM  117  C3  IDS A 305      78.570  20.798 104.651  1.00 53.01     0.216 C 
HETATM  118  C1  IDS A 305      78.343  22.598 102.788  1.00 59.39     0.269 C 
HETATM  119  C6  IDS A 305      81.835  21.221 102.762  1.00 52.73     0.216 C 
HETATM  120  O2S IDS A 305      75.642  22.473 105.788  1.00 53.21    -0.572 OA
HETATM  121  O3S IDS A 305      76.536  24.471 106.667  1.00 53.18    -0.572 OA
HETATM  122  C5  IDS A 305      80.460  21.546 103.265  1.00 52.80     0.234 C 
HETATM  123  O62 IDS A 305      82.516  22.188 102.387  1.00 51.46    -0.646 OA
HETATM  124  C4  IDS A 305      80.090  20.915 104.594  1.00 51.74     0.189 C 
HETATM  125  S   IDS A 305      76.794  23.109 106.337  1.00 52.72     0.252 S 
HETATM  126  C6  IDS A 303      83.460  27.021 110.307  1.00 56.97     0.216 C 
HETATM  127  S   IDS A 303      86.464  27.468 104.288  1.00 60.44     0.252 S 
HETATM  128  O3  IDS A 303      82.479  28.202 106.420  1.00 57.13    -0.218 OA
HETATM  129  C3  IDS A 303      83.818  28.355 106.753  1.00 56.85     0.216 C 
HETATM  130  C2  IDS A 303      84.627  27.189 106.147  1.00 55.69     0.226 C 
HETATM  131  C4  IDS A 303      83.996  28.440 108.285  1.00 56.88     0.189 C 
HETATM  132  C5  IDS A 303      83.813  27.051 108.835  1.00 56.05     0.234 C 
HETATM  133  O3S IDS A 303      85.286  27.270 103.468  1.00 59.56    -0.572 OA
HETATM  134  O62 IDS A 303      84.304  26.509 111.072  1.00 56.25    -0.646 OA
HETATM  135  O5  IDS A 303      84.556  25.993 108.281  1.00 54.82    -0.318 OA
HETATM  136  C1  IDS A 303      84.536  25.825 106.860  1.00 54.03     0.269 C 
HETATM  137  O2S IDS A 303      87.149  28.685 103.961  1.00 59.59    -0.572 OA
HETATM  138  O2  IDS A 303      85.943  27.567 105.958  1.00 57.75    -0.233 OA
HETATM  139  O1S IDS A 303      87.352  26.350 104.183  1.00 60.56    -0.572 OA
HETATM  140  O61 IDS A 303      82.345  27.443 110.675  1.00 58.07    -0.646 OA
ENDROOT
TORSDOF 46
