REMARK  0 active torsions:
REMARK  status: ('A' for Active; 'I' for Inactive)
REMARK       I    between atoms: C6_2581  and  C5_2580 
REMARK       I    between atoms: O2_2582  and  C2_2577 
REMARK       I    between atoms: O2_2582  and  S_2587 
REMARK       I    between atoms: C1_2576  and  O4_2600 
REMARK       I    between atoms: O2_2617  and  C2_2612 
REMARK       I    between atoms: O2_2617  and  S_2622 
REMARK       I    between atoms: C6_2616  and  C5_2615 
REMARK       I    between atoms: O4_2635  and  C1_2611 
REMARK       I    between atoms: C4_2614  and  O1_2598 
REMARK       I    between atoms: O6_2602  and  C6_2596 
REMARK       I    between atoms: O6_2602  and  S2_2607 
REMARK       I    between atoms: C1_2591  and  O1_2598 
REMARK       I    between atoms: C5_2595  and  C6_2596 
REMARK       I    between atoms: N_2597  and  C2_2592 
REMARK       I    between atoms: N_2597  and  S1_2603 
REMARK       I    between atoms: C4_2594  and  O4_2600 
REMARK       I    between atoms: N_2632  and  C2_2627 
REMARK       I    between atoms: N_2632  and  S1_2638 
REMARK       I    between atoms: O4_2635  and  C4_2629 
REMARK       I    between atoms: S2_2642  and  O6_2637 
REMARK       I    between atoms: C5_2630  and  C6_2631 
REMARK       I    between atoms: O6_2637  and  C6_2631 
ROOT
HETATM    1  C3  UAP A 901      -5.363  59.422 -16.305  1.00 89.42     0.210 C 
HETATM    2  O1S UAP A 901      -7.066  61.245 -12.376  1.00 77.81    -0.572 OA
HETATM    3  C6  UAP A 901      -6.338  56.070 -17.418  1.00 96.52     0.234 C 
HETATM    4  O2  UAP A 901      -5.956  59.435 -13.967  1.00 80.15    -0.232 OA
HETATM    5  O3  UAP A 901      -4.321  60.116 -16.957  1.00 90.02    -0.216 OA
HETATM    6  O61 UAP A 901      -6.564  56.325 -18.623  1.00 96.48    -0.642 OA
HETATM    7  O5  UAP A 901      -5.700  56.790 -15.314  1.00 87.66    -0.298 OA
HETATM    8  O2S UAP A 901      -5.787  62.068 -14.243  1.00 78.63    -0.572 OA
HETATM    9  S   UAP A 901      -5.865  61.026 -13.203  1.00 78.05     0.252 S 
HETATM   10  C5  UAP A 901      -5.934  57.050 -16.609  1.00 99.93     0.159 C 
HETATM   11  C2  UAP A 901      -4.941  59.039 -14.886  1.00 83.49     0.228 C 
HETATM   12  O62 UAP A 901      -6.492  54.920 -16.954  1.00 96.58    -0.642 OA
HETATM   13  O3S UAP A 901      -4.662  61.091 -12.352  1.00 78.11    -0.572 OA
HETATM   14  C4  UAP A 901      -5.779  58.290 -17.107  1.00100.00     0.039 C 
HETATM   15  C1  UAP A 901      -4.651  57.553 -14.723  1.00 79.36     0.273 C 
HETATM   16  O1S IDS A 903       6.213  51.676 -12.005  1.00 28.27    -0.572 OA
HETATM   17  O2  IDS A 903       4.380  52.879 -13.486  1.00 23.75    -0.233 OA
HETATM   18  O5  IDS A 903       3.386  55.397 -15.837  1.00 21.63    -0.318 OA
HETATM   19  C6  IDS A 903       1.696  57.052 -15.923  1.00 25.20     0.216 C 
HETATM   20  O2S IDS A 903       5.597  53.922 -11.375  1.00 24.76    -0.572 OA
HETATM   21  C3  IDS A 903       2.267  53.785 -14.090  1.00 26.01     0.216 C 
HETATM   22  O3S IDS A 903       4.071  52.096 -10.983  1.00 27.22    -0.572 OA
HETATM   23  O3  IDS A 903       1.684  53.157 -12.969  1.00 25.20    -0.218 OA
HETATM   24  O61 IDS A 903       0.932  57.881 -15.395  1.00 26.90    -0.646 OA
HETATM   25  C1  IDS A 903       4.356  54.677 -15.060  1.00 21.84     0.269 C 
HETATM   26  C4  IDS A 903       1.539  55.107 -14.366  1.00 27.74     0.189 C 
HETATM   27  C2  IDS A 903       3.714  54.099 -13.791  1.00 22.72     0.226 C 
HETATM   28  S   IDS A 903       5.100  52.636 -11.896  1.00 24.70     0.252 S 
HETATM   29  C5  IDS A 903       2.484  56.125 -15.018  1.00 25.34     0.234 C 
HETATM   30  O62 IDS A 903       1.849  56.955 -17.162  1.00 25.58    -0.646 OA
HETATM   31  O6  SGN A 902      -3.269  55.682 -12.060  1.00 45.81    -0.235 OA
HETATM   32  C1  SGN A 902      -0.649  54.144 -14.727  1.00 41.35     0.263 C 
HETATM   33  C5  SGN A 902      -1.793  56.109 -13.896  1.00 48.81     0.179 C 
HETATM   34  N   SGN A 902      -1.103  53.330 -16.972  1.00 44.74    -0.162 NA
HETATM   35  S1  SGN A 902      -0.819  51.584 -16.976  1.00 44.22     0.227 S 
HETATM   36  C4  SGN A 902      -2.878  55.960 -14.964  1.00 53.34     0.180 C 
HETATM   37  O5S SGN A 902      -4.091  56.036  -9.572  1.00 46.46    -0.572 OA
HETATM   38  C2  SGN A 902      -1.706  53.954 -15.812  1.00 44.68     0.207 C 
HETATM   39  S2  SGN A 902      -4.564  56.167 -10.964  1.00 46.36     0.252 S 
HETATM   40  O3S SGN A 902      -0.179  51.185 -15.709  1.00 45.00    -0.577 OA
HETATM   41  C6  SGN A 902      -2.394  56.664 -12.612  1.00 47.23     0.198 C 
HETATM   42  O3  SGN A 902      -3.275  55.141 -17.189  1.00 48.38    -0.218 OA
HETATM   43  O2S SGN A 902      -2.107  50.880 -17.116  1.00 45.31    -0.577 OA
HETATM   44  O6S SGN A 902      -4.935  57.569 -11.235  1.00 45.96    -0.572 OA
HETATM   45  C3  SGN A 902      -2.281  55.309 -16.204  1.00 49.30     0.210 C 
HETATM   46  O5  SGN A 902      -1.239  54.816 -13.606  1.00 43.17    -0.327 OA
HETATM   47  O1S SGN A 902       0.061  51.234 -18.106  1.00 44.29    -0.577 OA
HETATM   48  O4S SGN A 902      -5.737  55.297 -11.174  1.00 45.95    -0.572 OA
HETATM   49  O4  SGN A 902      -3.389  57.247 -15.314  1.00 66.42    -0.326 OA
HETATM   50  O1  SGN A 902       0.459  54.866 -15.269  1.00 32.06    -0.326 OA
HETATM   51  O4S SGN A 904       6.715  51.736 -18.368  1.00 22.71    -0.572 OA
HETATM   52  O5S SGN A 904       8.186  50.875 -16.663  1.00 23.24    -0.572 OA
HETATM   53  C3  SGN A 904       6.399  57.401 -15.783  1.00 21.40     0.210 C 
HETATM   54  N   SGN A 904       7.620  59.195 -16.840  1.00 23.28    -0.162 NA
HETATM   55  O5  SGN A 904       8.725  55.791 -16.081  1.00 19.28    -0.325 OA
HETATM   56  O6S SGN A 904       5.919  51.459 -16.104  1.00 24.83    -0.572 OA
HETATM   57  O3S SGN A 904       8.275  58.968 -19.374  1.00 24.40    -0.577 OA
HETATM   58  O4  SGN A 904       5.382  55.575 -14.645  1.00 19.46    -0.326 OA
HETATM   59  S2  SGN A 904       7.083  51.809 -16.941  1.00 21.88     0.252 S 
HETATM   60  O1  SGN A 904       9.144  57.816 -14.951  1.00 21.52    -0.188 OA
HETATM   61  O3  SGN A 904       5.184  57.881 -16.313  1.00 21.08    -0.218 OA
HETATM   62  O2S SGN A 904       8.014  61.209 -18.508  1.00 26.76    -0.577 OA
HETATM   63  C5  SGN A 904       7.704  55.366 -15.172  1.00 20.92     0.179 C 
HETATM   64  O6  SGN A 904       7.602  53.444 -16.553  1.00 22.01    -0.235 OA
HETATM   65  O1S SGN A 904       9.942  59.886 -17.895  1.00 24.94    -0.577 OA
HETATM   66  C1  SGN A 904       8.844  57.211 -16.212  1.00 22.65     0.295 C 
HETATM   67  C4  SGN A 904       6.347  55.887 -15.646  1.00 19.90     0.180 C 
HETATM   68  C2  SGN A 904       7.524  57.761 -16.734  1.00 21.02     0.210 C 
HETATM   69  C6  SGN A 904       7.695  53.850 -15.189  1.00 20.70     0.198 C 
HETATM   70  S1  SGN A 904       8.504  59.848 -18.214  1.00 23.13     0.227 S 
ENDROOT
TORSDOF 22
