REMARK  0 active torsions:
REMARK  status: ('A' for Active; 'I' for Inactive)
REMARK       I    between atoms: C2_2542  and  O2_2547 
REMARK       I    between atoms: C1_2541  and  O4_2565 
REMARK       I    between atoms: S_2552  and  O2_2547 
REMARK       I    between atoms: O1_2528  and  C4_2544 
REMARK       I    between atoms: C6_2546  and  C5_2545 
REMARK       I    between atoms: O4_2530  and  C1_2506 
REMARK       I    between atoms: O4_2530  and  C4_2524 
REMARK       I    between atoms: S1_2533  and  N_2527 
REMARK       I    between atoms: N_2527  and  C2_2522 
REMARK       I    between atoms: C6_2526  and  C5_2525 
REMARK       I    between atoms: C6_2526  and  O6_2532 
REMARK       I    between atoms: O1_2528  and  C1_2521 
REMARK       I    between atoms: O6_2532  and  S2_2537 
REMARK       I    between atoms: C5_2560  and  C6_2561 
REMARK       I    between atoms: O6_2567  and  C6_2561 
REMARK       I    between atoms: O6_2567  and  S2_2572 
REMARK       I    between atoms: N_2562  and  C2_2557 
REMARK       I    between atoms: N_2562  and  S1_2568 
REMARK       I    between atoms: C4_2559  and  O4_2565 
REMARK       I    between atoms: O2_2512  and  C2_2507 
REMARK       I    between atoms: O2_2512  and  S_2517 
REMARK       I    between atoms: C6_2511  and  C5_2510 
ROOT
HETATM    1  C2  IDS A 803     -27.927  84.183  19.690  1.00 43.50     0.226 C 
HETATM    2  C1  IDS A 803     -27.439  82.790  20.087  1.00 43.80     0.269 C 
HETATM    3  S   IDS A 803     -29.253  85.802  21.492  1.00 47.20     0.252 S 
HETATM    4  O3S IDS A 803     -28.836  85.319  22.823  1.00 48.11    -0.572 OA
HETATM    5  O5  IDS A 803     -28.303  81.791  19.522  1.00 41.81    -0.318 OA
HETATM    6  C3  IDS A 803     -28.052  84.288  18.170  1.00 42.28     0.216 C 
HETATM    7  O2S IDS A 803     -28.353  86.890  21.065  1.00 47.03    -0.572 OA
HETATM    8  O3  IDS A 803     -26.784  84.219  17.553  1.00 41.88    -0.218 OA
HETATM    9  C4  IDS A 803     -28.967  83.179  17.652  1.00 41.31     0.189 C 
HETATM   10  C6  IDS A 803     -29.325  80.708  17.653  1.00 40.74     0.216 C 
HETATM   11  O61 IDS A 803     -29.164  80.202  16.521  1.00 39.35    -0.646 OA
HETATM   12  C5  IDS A 803     -28.395  81.829  18.089  1.00 40.65     0.234 C 
HETATM   13  O2  IDS A 803     -29.169  84.475  20.327  1.00 45.01    -0.233 OA
HETATM   14  O62 IDS A 803     -30.201  80.311  18.451  1.00 40.38    -0.646 OA
HETATM   15  O1S IDS A 803     -30.637  86.306  21.564  1.00 47.01    -0.572 OA
HETATM   16  O3  SGN A 802     -34.126  84.315  19.622  1.00 41.64    -0.218 OA
HETATM   17  O4  SGN A 802     -34.435  81.649  18.758  1.00 60.92    -0.326 OA
HETATM   18  S1  SGN A 802     -31.542  87.296  18.271  1.00 39.98     0.227 S 
HETATM   19  O5S SGN A 802     -35.410  81.936  13.039  1.00 30.68    -0.572 OA
HETATM   20  N   SGN A 802     -31.736  85.661  18.914  1.00 40.63    -0.162 NA
HETATM   21  O3S SGN A 802     -30.364  87.334  17.385  1.00 39.46    -0.577 OA
HETATM   22  C6  SGN A 802     -33.203  80.951  16.176  1.00 39.41     0.198 C 
HETATM   23  O5  SGN A 802     -31.851  82.905  16.468  1.00 41.08    -0.327 OA
HETATM   24  C2  SGN A 802     -32.320  84.642  18.068  1.00 42.06     0.207 C 
HETATM   25  O1S SGN A 802     -31.352  88.241  19.386  1.00 40.86    -0.577 OA
HETATM   26  O1  SGN A 802     -30.283  83.339  18.190  1.00 40.09    -0.326 OA
HETATM   27  C4  SGN A 802     -33.721  82.609  17.977  1.00 48.75     0.180 C 
HETATM   28  O6  SGN A 802     -33.938  81.714  15.222  1.00 33.56    -0.235 OA
HETATM   29  C5  SGN A 802     -32.605  81.916  17.189  1.00 44.03     0.179 C 
HETATM   30  O4S SGN A 802     -35.753  79.970  14.396  1.00 29.06    -0.572 OA
HETATM   31  C1  SGN A 802     -31.232  83.910  17.285  1.00 41.69     0.263 C 
HETATM   32  O6S SGN A 802     -33.748  80.190  13.067  1.00 31.00    -0.572 OA
HETATM   33  O2S SGN A 802     -32.746  87.671  17.504  1.00 37.37    -0.577 OA
HETATM   34  S2  SGN A 802     -34.747  80.917  13.874  1.00 32.05     0.252 S 
HETATM   35  C3  SGN A 802     -33.110  83.647  18.908  1.00 45.01     0.210 C 
HETATM   36  O1  SGN A 804     -22.230  80.195  19.837  1.00 49.44    -0.188 OA
HETATM   37  C5  SGN A 804     -24.076  82.096  20.990  1.00 50.82     0.179 C 
HETATM   38  O6  SGN A 804     -24.927  82.979  23.075  1.00 55.54    -0.235 OA
HETATM   39  O6S SGN A 804     -25.677  83.596  25.546  1.00 58.28    -0.572 OA
HETATM   40  C1  SGN A 804     -23.116  79.884  20.914  1.00 50.13     0.295 C 
HETATM   41  N   SGN A 804     -24.146  78.178  19.503  1.00 51.58    -0.162 NA
HETATM   42  C4  SGN A 804     -25.419  81.576  20.477  1.00 48.78     0.180 C 
HETATM   43  O5S SGN A 804     -26.333  85.113  23.793  1.00 58.16    -0.572 OA
HETATM   44  O3S SGN A 804     -23.341  76.798  21.623  1.00 53.02    -0.577 OA
HETATM   45  S1  SGN A 804     -23.496  76.670  20.160  1.00 52.90     0.227 S 
HETATM   46  S2  SGN A 804     -25.257  84.230  24.282  1.00 57.24     0.252 S 
HETATM   47  O3  SGN A 804     -26.396  79.842  19.123  1.00 45.58    -0.218 OA
HETATM   48  O1S SGN A 804     -22.183  76.396  19.547  1.00 53.51    -0.577 OA
HETATM   49  O5  SGN A 804     -23.401  81.048  21.706  1.00 49.96    -0.325 OA
HETATM   50  C3  SGN A 804     -25.170  80.367  19.581  1.00 48.78     0.210 C 
HETATM   51  C6  SGN A 804     -24.240  83.328  21.875  1.00 52.85     0.198 C 
HETATM   52  O2S SGN A 804     -24.419  75.559  19.859  1.00 53.18    -0.577 OA
HETATM   53  C2  SGN A 804     -24.424  79.303  20.375  1.00 49.66     0.210 C 
HETATM   54  O4S SGN A 804     -24.038  85.027  24.512  1.00 57.81    -0.572 OA
HETATM   55  O4  SGN A 804     -26.072  82.596  19.719  1.00 46.31    -0.326 OA
HETATM   56  O5  UAP A 801     -36.622  82.368  18.201  1.00 83.48    -0.298 OA
HETATM   57  O2  UAP A 801     -37.496  79.676  18.465  1.00 74.51    -0.232 OA
HETATM   58  O1S UAP A 801     -39.010  77.700  17.550  1.00 72.48    -0.572 OA
HETATM   59  O3S UAP A 801     -36.632  77.321  17.604  1.00 73.09    -0.572 OA
HETATM   60  C1  UAP A 801     -35.707  81.271  18.227  1.00 74.53     0.273 C 
HETATM   61  O2S UAP A 801     -37.896  77.333  19.652  1.00 72.95    -0.572 OA
HETATM   62  C4  UAP A 801     -37.106  81.999  20.486  1.00 95.42     0.039 C 
HETATM   63  C3  UAP A 801     -36.607  80.640  20.486  1.00 84.57     0.210 C 
HETATM   64  O62 UAP A 801     -37.616  84.755  18.469  1.00 93.63    -0.642 OA
HETATM   65  S   UAP A 801     -37.770  77.936  18.312  1.00 72.18     0.252 S 
HETATM   66  C6  UAP A 801     -37.602  84.021  19.484  1.00 93.39     0.234 C 
HETATM   67  C2  UAP A 801     -36.298  80.154  19.074  1.00 78.27     0.228 C 
HETATM   68  C5  UAP A 801     -37.101  82.788  19.391  1.00 96.76     0.159 C 
HETATM   69  O61 UAP A 801     -38.062  84.419  20.580  1.00 93.65    -0.642 OA
HETATM   70  O3  UAP A 801     -35.457  80.553  21.298  1.00 84.88    -0.216 OA
ENDROOT
TORSDOF 22
