REMARK  0 active torsions:
REMARK  status: ('A' for Active; 'I' for Inactive)
REMARK       I    between atoms: N_2231  and  C2_2226 
REMARK       I    between atoms: N_2231  and  S1_2236 
REMARK       I    between atoms: O6_2235  and  C6_2230 
REMARK       I    between atoms: O6_2235  and  S2_2240 
REMARK       I    between atoms: C4_2228  and  O4_2233 
REMARK       I    between atoms: C5_2229  and  C6_2230 
REMARK       I    between atoms: C1_2225  and  O4_2217 
REMARK       I    between atoms: C1_2244  and  O4_2233 
REMARK       I    between atoms: C6_2214  and  C5_2213 
REMARK       I    between atoms: O4_2217  and  C4_2212 
REMARK       I    between atoms: S_2221  and  O2_2215 
REMARK       I    between atoms: C2_2210  and  O2_2215 
REMARK       I    between atoms: O4_2198  and  C1_2209 
REMARK       I    between atoms: C2_2245  and  O2_2250 
REMARK       I    between atoms: C5_2248  and  C6_2249 
REMARK       I    between atoms: S_2255  and  O2_2250 
REMARK       I    between atoms: S1_2201  and  N_2196 
REMARK       I    between atoms: C4_2193  and  O4_2198 
REMARK       I    between atoms: C6_2195  and  C5_2194 
REMARK       I    between atoms: C6_2195  and  O6_2200 
REMARK       I    between atoms: C1_2190  and  O4_2182 
REMARK       I    between atoms: S2_2205  and  O6_2200 
REMARK       I    between atoms: C2_2191  and  N_2196 
REMARK       I    between atoms: S_2186  and  O2_2180 
REMARK       I    between atoms: C5_2177  and  C6_2178 
REMARK       I    between atoms: O2_2180  and  C2_2174 
REMARK       I    between atoms: O4_2182  and  C4_2176 
ROOT
HETATM    1  O4S SGN A 304     135.581  12.553  68.787  1.00 88.08    -0.572 OA
HETATM    2  C3  SGN A 304     134.078   8.488  73.125  1.00 86.39     0.210 C 
HETATM    3  O2S SGN A 304     129.986   9.478  74.229  1.00 86.58    -0.577 OA
HETATM    4  O5S SGN A 304     133.235  13.007  68.945  1.00 88.64    -0.572 OA
HETATM    5  N   SGN A 304     132.157   8.294  74.715  1.00 86.57    -0.162 NA
HETATM    6  O5  SGN A 304     133.738  11.348  73.310  1.00 85.64    -0.327 OA
HETATM    7  O6  SGN A 304     134.408  12.304  70.884  1.00 87.84    -0.235 OA
HETATM    8  C4  SGN A 304     134.639   9.423  72.021  1.00 88.20     0.180 C 
HETATM    9  C5  SGN A 304     134.932  10.808  72.686  1.00 86.20     0.179 C 
HETATM   10  C1  SGN A 304     133.093  10.517  74.276  1.00 84.24     0.263 C 
HETATM   11  S1  SGN A 304     130.537   8.382  74.985  1.00 87.59     0.227 S 
HETATM   12  O6S SGN A 304     134.799  14.483  69.972  1.00 87.84    -0.572 OA
HETATM   13  O1S SGN A 304     130.421   8.599  76.400  1.00 86.10    -0.577 OA
HETATM   14  C2  SGN A 304     132.781   9.121  73.669  1.00 85.76     0.207 C 
HETATM   15  S2  SGN A 304     134.524  13.136  69.567  1.00 88.58     0.252 S 
HETATM   16  O3  SGN A 304     133.783   7.219  72.568  1.00 86.63    -0.218 OA
HETATM   17  O3S SGN A 304     130.016   7.108  74.585  1.00 88.00    -0.577 OA
HETATM   18  C6  SGN A 304     135.460  11.887  71.730  1.00 87.26     0.198 C 
HETATM   19  O4  SGN A 304     135.639   8.585  71.418  1.00 93.96    -0.326 OA
HETATM   20  C6  IDS A 303     136.022  12.625  75.753  1.00 74.21     0.216 C 
HETATM   21  O3S IDS A 303     133.169   7.375  79.785  1.00 84.51    -0.572 OA
HETATM   22  O2S IDS A 303     132.679   6.467  77.613  1.00 85.65    -0.572 OA
HETATM   23  O61 IDS A 303     135.726  13.739  75.371  1.00 73.24    -0.646 OA
HETATM   24  C5  IDS A 303     135.212  11.924  76.843  1.00 75.11     0.234 C 
HETATM   25  O1S IDS A 303     134.920   6.441  78.439  1.00 85.99    -0.572 OA
HETATM   26  O4  IDS A 303     133.884  10.411  75.440  1.00 82.10    -0.326 OA
HETATM   27  O62 IDS A 303     136.983  12.087  75.244  1.00 73.05    -0.646 OA
HETATM   28  O3  IDS A 303     132.665  11.817  78.508  1.00 75.54    -0.218 OA
HETATM   29  S   IDS A 303     133.653   7.121  78.452  1.00 85.19     0.252 S 
HETATM   30  C4  IDS A 303     133.798  11.466  76.410  1.00 77.57     0.189 C 
HETATM   31  C2  IDS A 303     133.977   9.794  78.402  1.00 77.52     0.226 C 
HETATM   32  O5  IDS A 303     135.944  10.782  77.309  1.00 74.33    -0.318 OA
HETATM   33  O2  IDS A 303     133.889   8.522  77.779  1.00 81.57    -0.233 OA
HETATM   34  C1  IDS A 303     135.477  10.177  78.509  1.00 74.58     0.269 C 
HETATM   35  C3  IDS A 303     133.084  10.796  77.619  1.00 77.16     0.216 C 
HETATM   36  C2  IDS A 305     137.381   8.217  69.826  1.00 97.04     0.224 C 
HETATM   37  C5  IDS A 305     135.209   6.809  68.836  1.00 98.66     0.207 C 
HETATM   38  O2S IDS A 305     138.819   8.882  72.483  1.00 97.50    -0.572 OA
HETATM   39  O61 IDS A 305     133.509   5.180  68.472  1.00100.22    -0.646 OA
HETATM   40  C1  IDS A 305     135.959   8.793  70.065  1.00 95.68     0.268 C 
HETATM   41  O3S IDS A 305     140.383   8.169  70.817  1.00 97.44    -0.572 OA
HETATM   42  O3  IDS A 305     138.845   7.267  68.152  1.00 98.37    -0.221 OA
HETATM   43  O1S IDS A 305     140.021  10.497  71.214  1.00 97.12    -0.572 OA
HETATM   44  C3  IDS A 305     137.547   7.793  68.352  1.00 97.77     0.189 C 
HETATM   45  S   IDS A 305     139.454   9.178  71.234  1.00 96.92     0.252 S 
HETATM   46  O5  IDS A 305     134.986   8.191  69.196  1.00 97.42    -0.320 OA
HETATM   47  C6  IDS A 305     133.965   6.255  68.148  1.00 99.46     0.214 C 
HETATM   48  O62 IDS A 305     133.401   6.865  67.266  1.00 99.98    -0.646 OA
HETATM   49  C4  IDS A 305     136.507   6.702  67.968  1.00 98.23     0.077 C 
HETATM   50  O2  IDS A 305     138.342   9.215  70.133  1.00 97.02    -0.233 OA
HETATM   51  O1S SGN A 302     139.247  16.683  81.808  1.00 56.50    -0.577 OA
HETATM   52  S1  SGN A 302     139.606  15.460  81.155  1.00 58.67     0.227 S 
HETATM   53  O3  SGN A 302     136.501  13.508  79.567  1.00 66.88    -0.218 OA
HETATM   54  C4  SGN A 302     136.977  11.185  80.100  1.00 69.28     0.180 C 
HETATM   55  C6  SGN A 302     137.592   8.796  80.950  1.00 69.22     0.198 C 
HETATM   56  O5S SGN A 302     140.032   7.352  78.521  1.00 68.97    -0.572 OA
HETATM   57  O6S SGN A 302     140.170   7.031  80.884  1.00 67.75    -0.572 OA
HETATM   58  O2S SGN A 302     140.810  14.910  81.697  1.00 59.71    -0.577 OA
HETATM   59  C1  SGN A 302     138.889  12.115  82.120  1.00 68.93     0.263 C 
HETATM   60  O4  SGN A 302     135.649  11.010  79.616  1.00 72.57    -0.326 OA
HETATM   61  O3S SGN A 302     139.628  15.573  79.725  1.00 57.68    -0.577 OA
HETATM   62  C3  SGN A 302     136.946  12.645  80.600  1.00 67.70     0.210 C 
HETATM   63  S2  SGN A 302     139.312   7.188  79.746  1.00 69.91     0.252 S 
HETATM   64  C5  SGN A 302     137.490  10.296  81.279  1.00 68.13     0.179 C 
HETATM   65  C2  SGN A 302     138.353  13.058  81.013  1.00 66.07     0.207 C 
HETATM   66  O6  SGN A 302     138.571   8.546  79.969  1.00 69.83    -0.235 OA
HETATM   67  N   SGN A 302     138.375  14.447  81.504  1.00 62.09    -0.162 NA
HETATM   68  O5  SGN A 302     138.806  10.746  81.707  1.00 67.31    -0.327 OA
HETATM   69  O4S SGN A 302     138.305   6.168  79.650  1.00 71.79    -0.572 OA
HETATM   70  O5  IDS A 301     138.912  10.386  86.487  1.00 94.98    -0.316 OA
HETATM   71  S   IDS A 301     139.983  14.878  88.429  1.00102.82     0.252 S 
HETATM   72  O2S IDS A 301     140.036  15.965  87.486  1.00101.73    -0.572 OA
HETATM   73  O61 IDS A 301     140.709   8.924  84.000  0.00 94.78    -0.646 OA
HETATM   74  C5  IDS A 301     139.611  10.627  85.246  1.00 94.01     0.234 C 
HETATM   75  O2  IDS A 301     139.046  13.800  87.787  1.00 99.75    -0.232 OA
HETATM   76  O62 IDS A 301     138.656   8.719  84.164  0.00 94.78    -0.646 OA
HETATM   77  O1S IDS A 301     141.262  14.261  88.657  1.00102.74    -0.572 OA
HETATM   78  O4  IDS A 301     138.243  12.283  83.353  1.00 73.54    -0.326 OA
HETATM   79  C4  IDS A 301     138.957  11.867  84.528  1.00 88.29     0.189 C 
HETATM   80  C3  IDS A 301     138.608  12.979  85.567  1.00 93.94     0.216 C 
HETATM   81  O3S IDS A 301     139.318  15.229  89.659  1.00101.82    -0.572 OA
HETATM   82  C1  IDS A 301     139.082  11.386  87.498  1.00 96.18     0.301 C 
HETATM   83  C6  IDS A 301     139.656   9.346  84.422  0.00 93.90     0.216 C 
HETATM   84  O3  IDS A 301     138.926  14.250  85.021  1.00 92.45    -0.218 OA
HETATM   85  C2  IDS A 301     139.400  12.778  86.874  1.00 95.93     0.229 C 
HETATM   86  O1  IDS A 301     140.135  11.050  88.358  1.00 95.73    -0.187 OA
ENDROOT
TORSDOF 27
