REMARK  0 active torsions:
REMARK  status: ('A' for Active; 'I' for Inactive)
REMARK       I    between atoms: S2_16  and  O4S_17 
REMARK       I    between atoms: O3_9  and  C3_3 
REMARK       I    between atoms: O3_9  and  C3_3 
REMARK       I    between atoms: C2_280  and  O2_286 
REMARK       I    between atoms: C3_281  and  O3_287 
REMARK       I    between atoms: O5_289  and  C1_279 
REMARK       I    between atoms: O61_290  and  O62_291 
REMARK       I    between atoms: C6_284  and  C5_283 
REMARK       I    between atoms: C4_282  and  C5_283 
REMARK       I    between atoms: C4_282  and  C5_283 
REMARK       I    between atoms: O2_286  and  S_292 
REMARK       I    between atoms: C3_81  and  C4_82 
REMARK       I    between atoms: O2_86  and  S_91 
REMARK       I    between atoms: O5_88  and  C1_79 
REMARK       I    between atoms: C6_84  and  C5_83 
REMARK       I    between atoms: C6_84  and  C5_83 
REMARK       I    between atoms: C5_83  and  C4_82 
REMARK       I    between atoms: C5_83  and  C4_82 
REMARK       I    between atoms: O4S_267  and  S2_266 
REMARK       I    between atoms: C2_252  and  C3_253 
REMARK       I    between atoms: C5_255  and  C4_254 
REMARK       I    between atoms: O1_258  and  C4_232 
REMARK       I    between atoms: O1_258  and  C4_232 
REMARK       I    between atoms: C3_253  and  C4_254 
REMARK       I    between atoms: C3_253  and  C4_254 
REMARK       I    between atoms: C3_231  and  O3_237 
REMARK       I    between atoms: C3_231  and  C4_232 
REMARK       I    between atoms: C3_231  and  C4_232 
REMARK       I    between atoms: O5_238  and  C1_229 
REMARK       I    between atoms: O2_236  and  S_241 
REMARK       I    between atoms: O2_236  and  C2_230 
REMARK       I    between atoms: O61_239  and  C6_234 
REMARK       I    between atoms: C5_233  and  C6_234 
REMARK       I    between atoms: C5_233  and  C6_234 
REMARK       I    between atoms: O62_240  and  C6_234 
REMARK       I    between atoms: C2_152  and  C3_153 
REMARK       I    between atoms: C2_152  and  C1_151 
REMARK       I    between atoms: C2_152  and  C3_153 
REMARK       I    between atoms: N_157  and  S1_162 
REMARK       I    between atoms: S2_166  and  O6S_169 
REMARK       I    between atoms: C5_155  and  C4_154 
REMARK       I    between atoms: C5_155  and  C6_156 
REMARK       I    between atoms: C3_153  and  C4_154 
REMARK       I    between atoms: O1_158  and  C1_151 
REMARK       I    between atoms: C1_151  and  O5_160 
REMARK       I    between atoms: O1S_113  and  S1_112 
REMARK       I    between atoms: H61_125  and  C6_106 
REMARK       I    between atoms: C3_103  and  C4_104 
REMARK       I    between atoms: C3_103  and  C2_102 
REMARK       I    between atoms: C3_103  and  C4_104 
REMARK       I    between atoms: O6_111  and  C6_106 
REMARK       I    between atoms: O6_111  and  C6_106 
REMARK       I    between atoms: C6_106  and  C5_105 
REMARK       I    between atoms: C6_106  and  C5_105 
REMARK       I    between atoms: O6S_119  and  S2_116 
REMARK       I    between atoms: N_107  and  C2_102 
REMARK       I    between atoms: S2_116  and  O5S_118 
REMARK       I    between atoms: O5_110  and  C1_101 
REMARK       I    between atoms: O5_110  and  C1_101 
REMARK       I    between atoms: O3_37  and  C3_31 
REMARK       I    between atoms: O3_37  and  C3_31 
REMARK       I    between atoms: C4_32  and  C5_33 
REMARK       I    between atoms: C4_32  and  C3_31 
REMARK       I    between atoms: C4_32  and  C5_33 
REMARK       I    between atoms: C2_30  and  O2_36 
REMARK       I    between atoms: S_41  and  O2_36 
REMARK       I    between atoms: S_41  and  O2_36 
REMARK       I    between atoms: C3_131  and  O3_137 
REMARK       I    between atoms: C3_131  and  C2_130 
REMARK       I    between atoms: S_141  and  O2_136 
REMARK       I    between atoms: S_141  and  O2_136 
REMARK       I    between atoms: O2_136  and  C2_130 
REMARK       I    between atoms: O2_136  and  C2_130 
REMARK       I    between atoms: C5_133  and  O5_138 
REMARK       I    between atoms: C5_133  and  O5_138 
REMARK       I    between atoms: C4_182  and  C5_183 
REMARK       I    between atoms: C4_182  and  C3_181 
REMARK       I    between atoms: C4_182  and  C3_181 
REMARK       I    between atoms: C4_182  and  C5_183 
REMARK       I    between atoms: C4_182  and  O1_208 
REMARK       I    between atoms: C5_183  and  C6_184 
REMARK       I    between atoms: C5_183  and  C6_184 
REMARK       I    between atoms: C6_184  and  O62_190 
REMARK       I    between atoms: C1_179  and  C2_180 
REMARK       I    between atoms: C1_179  and  O5_188 
REMARK       I    between atoms: S_191  and  O2_186 
REMARK       I    between atoms: O3_187  and  C3_181 
REMARK       I    between atoms: C2_180  and  C3_181 
REMARK       I    between atoms: C2_180  and  O2_186 
REMARK       I    between atoms: C2_180  and  C3_181 
REMARK       I    between atoms: C5_205  and  C4_204 
REMARK       I    between atoms: O5_210  and  C1_201 
REMARK       I    between atoms: C3_203  and  C4_204 
REMARK       I    between atoms: C3_203  and  C4_204 
REMARK       I    between atoms: C3_203  and  O3_209 
REMARK       I    between atoms: C1_201  and  O1_208 
REMARK       I    between atoms: C1_201  and  C2_202 
REMARK       I    between atoms: O4S_217  and  S2_216 
REMARK       I    between atoms: N_207  and  S1_212 
REMARK       I    between atoms: O6S_219  and  S2_216 
REMARK       I    between atoms: C1_51  and  O1_58 
REMARK       I    between atoms: C1_51  and  O1_58 
REMARK       I    between atoms: C4_54  and  C5_55 
REMARK       I    between atoms: O1S_63  and  S1_62 
REMARK       I    between atoms: C3_53  and  O3_59 
REMARK       I    between atoms: C3_53  and  O3_59 
ROOT
HETATM    1  H4  SGN A   1       6.097   6.643   2.726  1.00  0.00     0.000 HD
ENDROOT
TORSDOF 106
