REMARK  0 active torsions:
REMARK  status: ('A' for Active; 'I' for Inactive)
REMARK       I    between atoms: C5_5806  and  C6_5807 
REMARK       I    between atoms: C1_5802  and  O3_5797 
REMARK       I    between atoms: O4_5810  and  C4_5805 
REMARK       I    between atoms: O4_5810  and  C1_5814 
REMARK       I    between atoms: C2_5841  and  N2_5848 
REMARK       I    between atoms: C3_5842  and  O3_5849 
REMARK       I    between atoms: C7_5846  and  N2_5848 
REMARK       I    between atoms: C1_5840  and  O4_5836 
REMARK       I    between atoms: C5_5844  and  C6_5845 
REMARK       I    between atoms: O3_5849  and  C1_5854 
REMARK       I    between atoms: O3_5797  and  C3_5789 
REMARK       I    between atoms: C6_5792  and  C5_5791 
REMARK       I    between atoms: N2_5795  and  C2_5788 
REMARK       I    between atoms: N2_5795  and  C7_5793 
REMARK       I    between atoms: C6_5859  and  C5_5858 
REMARK       I    between atoms: C5_5832  and  C6_5833 
REMARK       I    between atoms: O3_5823  and  C1_5828 
REMARK       I    between atoms: C4_5831  and  O4_5836 
REMARK       I    between atoms: C5_5818  and  C6_5819 
REMARK       I    between atoms: C2_5815  and  N2_5822 
REMARK       I    between atoms: N2_5822  and  C7_5820 
REMARK       I    between atoms: O3_5823  and  C3_5816 
ROOT
HETATM    1  C5  BDP A2001      12.367 -13.562  31.770  1.00 25.24     0.234 C 
HETATM    2  C3  BDP A2001      13.169 -11.142  32.664  1.00 20.49     0.217 C 
HETATM    3  C1  BDP A2001      14.823 -13.005  32.453  1.00 24.85     0.270 C 
HETATM    4  O3  BDP A2001      12.911  -9.722  32.507  1.00 25.37    -0.218 OA
HETATM    5  C2  BDP A2001      14.636 -11.459  32.225  1.00 16.75     0.241 C 
HETATM    6  O4  BDP A2001      10.768 -11.753  32.147  1.00 17.94    -0.326 OA
HETATM    7  C4  BDP A2001      12.176 -11.942  31.740  1.00 24.41     0.189 C 
HETATM    8  O6A BDP A2001      11.997 -15.560  30.926  1.00 27.78    -0.646 OA
HETATM    9  O6B BDP A2001      10.715 -13.771  30.290  1.00 15.64    -0.646 OA
HETATM   10  C6  BDP A2001      11.630 -14.355  30.949  1.00 16.24     0.216 C 
HETATM   11  O2  BDP A2001      15.575 -10.715  33.054  1.00 22.87    -0.215 OA
HETATM   12  O5  BDP A2001      13.881 -13.770  31.641  1.00 18.19    -0.318 OA
HETATM   13  C2  NAG A2004       1.789  -8.336  25.708  1.00 14.21     0.192 C 
HETATM   14  O5  NAG A2004       1.112 -10.420  26.905  1.00 23.36    -0.327 OA
HETATM   15  C3  NAG A2004       0.573  -8.457  24.774  1.00 17.60     0.178 C 
HETATM   16  C7  NAG A2004       1.625  -5.944  26.877  1.00 20.27     0.252 C 
HETATM   17  C1  NAG A2004       1.452  -8.971  27.095  1.00 12.57     0.262 C 
HETATM   18  C5  NAG A2004      -0.092 -10.601  26.041  1.00 17.74     0.184 C 
HETATM   19  N2  NAG A2004       2.134  -6.830  25.859  1.00 23.07    -0.232 NA
HETATM   20  C8  NAG A2004       2.150  -4.531  26.730  1.00 23.54     0.100 C 
HETATM   21  O4  NAG A2004      -0.935 -10.213  23.732  1.00 21.50    -0.218 OA
HETATM   22  O7  NAG A2004       0.837  -6.245  27.796  1.00 17.65    -0.271 OA
HETATM   23  C6  NAG A2004      -0.400 -12.106  25.926  1.00 20.87     0.214 C 
HETATM   24  O3  NAG A2004       0.926  -7.864  23.467  1.00 28.67    -0.326 OA
HETATM   25  C4  NAG A2004       0.238  -9.999  24.605  1.00 19.79     0.211 C 
HETATM   26  O6  NAG A2004      -0.337 -12.608  24.573  1.00 18.18    -0.218 OA
HETATM   27  O3  NAG A2000      16.118 -13.448  32.110  1.00 13.46    -0.327 OA
HETATM   28  C6  NAG A2000      16.849 -18.434  31.428  1.00 18.80     0.214 C 
HETATM   29  C5  NAG A2000      16.955 -17.212  32.384  1.00 25.35     0.184 C 
HETATM   30  O7  NAG A2000      18.616 -11.659  32.530  1.00 13.78    -0.271 OA
HETATM   31  C1  NAG A2000      18.584 -15.887  33.735  1.00 17.59     0.294 C 
HETATM   32  N2  NAG A2000      18.311 -13.409  34.092  1.00 25.44    -0.232 NA
HETATM   33  O4  NAG A2000      15.028 -16.071  31.361  1.00 23.48    -0.218 OA
HETATM   34  C2  NAG A2000      18.112 -14.542  33.092  1.00 24.26     0.195 C 
HETATM   35  C7  NAG A2000      18.543 -12.071  33.705  1.00 17.74     0.252 C 
HETATM   36  O5  NAG A2000      18.393 -17.056  32.775  1.00 28.51    -0.325 OA
HETATM   37  O6  NAG A2000      16.331 -19.635  32.074  1.00 19.93    -0.218 OA
HETATM   38  C8  NAG A2000      18.689 -11.146  34.888  1.00 20.63     0.100 C 
HETATM   39  O1  NAG A2000      19.962 -15.807  34.060  1.00 20.34    -0.188 OA
HETATM   40  C3  NAG A2000      16.593 -14.687  32.737  1.00 24.40     0.178 C 
HETATM   41  C4  NAG A2000      16.428 -15.873  31.714  1.00 17.29     0.211 C 
HETATM   42  C2  BDP A2005       0.507  -6.902  21.379  1.00 25.60     0.259 C 
HETATM   43  C3  BDP A2005      -0.705  -6.525  20.514  1.00 21.59     0.185 C 
HETATM   44  O2  BDP A2005       1.318  -5.791  21.734  1.00 18.68    -0.211 OA
HETATM   45  O6A BDP A2005      -2.413 -10.054  20.066  1.00 22.75    -0.642 OA
HETATM   46  O6B BDP A2005      -3.642  -9.638  21.986  1.00  8.26    -0.642 OA
HETATM   47  C6  BDP A2005      -2.784  -9.373  21.081  1.00 19.44     0.238 C 
HETATM   48  O3  BDP A2005      -0.193  -6.084  19.210  1.00 27.11    -0.189 OA
HETATM   49  C5  BDP A2005      -2.096  -8.135  21.289  1.00 21.71     0.202 C 
HETATM   50  C4  BDP A2005      -2.030  -7.153  20.366  1.00 18.41     0.247 C 
HETATM   51  C1  BDP A2005      -0.110  -7.440  22.615  1.00 13.31     0.279 C 
HETATM   52  O4  BDP A2005      -2.617  -7.244  19.466  1.00 17.96    -0.282 OA
HETATM   53  O5  BDP A2005      -0.946  -8.523  22.189  1.00 19.33    -0.294 OA
HETATM   54  C5  BDP A2003       4.653  -8.801  28.858  1.00 23.18     0.234 C 
HETATM   55  O6B BDP A2003       4.827  -6.597  28.958  1.00 14.92    -0.646 OA
HETATM   56  C2  BDP A2003       3.694 -10.401  31.332  1.00 26.66     0.241 C 
HETATM   57  C1  BDP A2003       5.207 -10.217  30.946  1.00 20.97     0.270 C 
HETATM   58  C4  BDP A2003       3.137  -9.160  29.197  1.00 17.66     0.189 C 
HETATM   59  C3  BDP A2003       2.932 -10.545  29.945  1.00 21.47     0.217 C 
HETATM   60  C6  BDP A2003       4.950  -7.640  28.245  1.00 14.82     0.216 C 
HETATM   61  O6A BDP A2003       5.268  -7.773  27.043  1.00 22.61    -0.646 OA
HETATM   62  O2  BDP A2003       3.569 -11.609  32.120  1.00 16.18    -0.215 OA
HETATM   63  O5  BDP A2003       5.394  -9.035  30.142  1.00 15.39    -0.318 OA
HETATM   64  O3  BDP A2003       1.532 -10.750  30.216  1.00 29.04    -0.218 OA
HETATM   65  O4  BDP A2003       2.656  -8.869  27.821  1.00 13.75    -0.326 OA
HETATM   66  C5  NAG A2002       9.530  -8.516  30.803  1.00 10.81     0.184 C 
HETATM   67  C2  NAG A2002       8.458 -10.940  32.182  1.00 18.62     0.192 C 
HETATM   68  N2  NAG A2002       7.864 -12.335  32.155  1.00 26.61    -0.232 NA
HETATM   69  C7  NAG A2002       7.197 -12.844  33.290  1.00 25.62     0.252 C 
HETATM   70  O3  NAG A2002       6.133 -10.059  32.019  1.00 16.03    -0.327 OA
HETATM   71  C8  NAG A2002       6.650 -14.218  33.062  1.00 22.36     0.100 C 
HETATM   72  O4  NAG A2002       7.260  -7.578  30.771  1.00 23.61    -0.218 OA
HETATM   73  O5  NAG A2002      10.432  -9.471  31.498  1.00 18.24    -0.327 OA
HETATM   74  C4  NAG A2002       8.098  -8.520  31.484  1.00 13.74     0.211 C 
HETATM   75  C3  NAG A2002       7.511  -9.982  31.424  1.00 18.43     0.178 C 
HETATM   76  C1  NAG A2002       9.871 -10.885  31.481  1.00 16.82     0.262 C 
HETATM   77  O6  NAG A2002      10.094  -6.495  32.134  1.00 18.39    -0.218 OA
HETATM   78  O7  NAG A2002       7.047 -12.250  34.360  1.00 28.34    -0.271 OA
HETATM   79  C6  NAG A2002      10.188  -7.130  30.842  1.00 22.07     0.214 C 
ENDROOT
TORSDOF 19
