REMARK  0 active torsions:
REMARK  status: ('A' for Active; 'I' for Inactive)
REMARK       I    between atoms: C2_5804  and  N2_5811 
REMARK       I    between atoms: N2_5811  and  C7_5809 
REMARK       I    between atoms: C1_5803  and  O4_5799 
REMARK       I    between atoms: C3_5805  and  O3_5812 
REMARK       I    between atoms: C5_5807  and  C6_5808 
REMARK       I    between atoms: O3_5812  and  C1_5817 
REMARK       I    between atoms: C2_5777  and  N2_5784 
REMARK       I    between atoms: C1_5791  and  O3_5786 
REMARK       I    between atoms: O3_5786  and  C3_5778 
REMARK       I    between atoms: C5_5780  and  C6_5781 
REMARK       I    between atoms: N2_5784  and  C7_5782 
REMARK       I    between atoms: C5_5795  and  C6_5796 
REMARK       I    between atoms: C4_5794  and  O4_5799 
REMARK       I    between atoms: C6_5822  and  C5_5821 
ROOT
HETATM    1  C4  NAG A1002       8.051  -8.666  31.447  1.00 62.36     0.211 C 
HETATM    2  C2  NAG A1002       8.434 -11.045  32.244  1.00 59.02     0.192 C 
HETATM    3  N2  NAG A1002       7.858 -12.448  32.243  1.00 52.26    -0.232 NA
HETATM    4  C7  NAG A1002       7.100 -12.949  33.325  1.00 40.33     0.252 C 
HETATM    5  C1  NAG A1002       9.857 -11.019  31.583  1.00 63.86     0.262 C 
HETATM    6  O4  NAG A1002       7.192  -7.785  30.681  1.00 58.29    -0.218 OA
HETATM    7  C8  NAG A1002       6.613 -14.341  33.078  1.00 41.11     0.100 C 
HETATM    8  O6  NAG A1002      10.326  -6.751  32.144  1.00 62.18    -0.218 OA
HETATM    9  C3  NAG A1002       7.502 -10.121  31.425  1.00 60.99     0.178 C 
HETATM   10  O7  NAG A1002       6.834 -12.343  34.358  1.00 40.79    -0.271 OA
HETATM   11  C5  NAG A1002       9.489  -8.671  30.803  1.00 62.83     0.184 C 
HETATM   12  O3  NAG A1002       6.185 -10.136  32.008  1.00 62.64    -0.327 OA
HETATM   13  C6  NAG A1002      10.118  -7.263  30.814  1.00 63.96     0.214 C 
HETATM   14  O5  NAG A1002      10.404  -9.584  31.564  1.00 65.87    -0.327 OA
HETATM   15  C1  NAG A1000      18.546 -15.782  33.871  1.00 76.69     0.294 C 
HETATM   16  C4  NAG A1000      16.427 -15.896  31.820  1.00 69.82     0.211 C 
HETATM   17  C2  NAG A1000      18.059 -14.477  33.167  1.00 74.44     0.195 C 
HETATM   18  O3  NAG A1000      16.061 -13.456  32.143  1.00 71.17    -0.327 OA
HETATM   19  O5  NAG A1000      18.391 -17.009  32.972  1.00 71.42    -0.325 OA
HETATM   20  C5  NAG A1000      16.964 -17.187  32.565  1.00 69.83     0.184 C 
HETATM   21  O4  NAG A1000      15.044 -16.125  31.449  1.00 67.48    -0.218 OA
HETATM   22  C3  NAG A1000      16.557 -14.664  32.802  1.00 70.54     0.178 C 
HETATM   23  O1  NAG A1000      19.906 -15.672  34.215  1.00 85.81    -0.188 OA
HETATM   24  N2  NAG A1000      18.237 -13.297  34.103  1.00 72.44    -0.232 NA
HETATM   25  C7  NAG A1000      18.605 -12.014  33.639  1.00 73.29     0.252 C 
HETATM   26  C6  NAG A1000      16.895 -18.446  31.679  1.00 68.36     0.214 C 
HETATM   27  C8  NAG A1000      18.707 -11.022  34.771  1.00 71.95     0.100 C 
HETATM   28  O6  NAG A1000      16.208 -19.540  32.325  1.00 66.12    -0.218 OA
HETATM   29  O7  NAG A1000      18.822 -11.696  32.456  1.00 69.20    -0.271 OA
HETATM   30  C2  BDP A1001      14.529 -11.526  32.345  1.00 69.72     0.241 C 
HETATM   31  C1  BDP A1001      14.776 -13.048  32.515  1.00 70.26     0.270 C 
HETATM   32  O6A BDP A1001      10.532 -13.977  30.533  1.00 81.86    -0.646 OA
HETATM   33  C5  BDP A1001      12.231 -13.713  31.793  1.00 74.43     0.234 C 
HETATM   34  C3  BDP A1001      13.084 -11.250  32.806  1.00 70.45     0.217 C 
HETATM   35  O2  BDP A1001      15.470 -10.788  33.166  1.00 68.38    -0.215 OA
HETATM   36  O5  BDP A1001      13.839 -13.832  31.717  1.00 73.64    -0.318 OA
HETATM   37  C4  BDP A1001      12.119 -12.038  31.894  1.00 71.15     0.189 C 
HETATM   38  O3  BDP A1001      12.805  -9.838  32.688  1.00 70.28    -0.218 OA
HETATM   39  C6  BDP A1001      11.570 -14.462  31.067  1.00 79.47     0.216 C 
HETATM   40  O4  BDP A1001      10.728 -11.851  32.303  1.00 70.35    -0.326 OA
HETATM   41  O6B BDP A1001      12.040 -15.624  30.940  1.00 84.57    -0.646 OA
HETATM   42  C2  BDP A1003       3.827 -10.582  31.927  1.00 64.64     0.241 C 
HETATM   43  C3  BDP A1003       2.770 -11.090  30.896  1.00 66.48     0.221 C 
HETATM   44  C6  BDP A1003       4.051  -9.280  27.837  1.00 65.55     0.217 C 
HETATM   45  C4  BDP A1003       2.751 -10.170  29.672  1.00 71.66     0.223 C 
HETATM   46  O2  BDP A1003       3.935 -11.403  33.118  1.00 64.85    -0.215 OA
HETATM   47  O3  BDP A1003       1.490 -11.087  31.576  1.00 62.11    -0.218 OA
HETATM   48  O6B BDP A1003       4.490  -8.127  28.064  1.00 63.69    -0.646 OA
HETATM   49  O4  BDP A1003       1.751 -10.547  28.627  1.00 82.33    -0.217 OA
HETATM   50  O6A BDP A1003       3.679  -9.822  26.769  1.00 62.93    -0.646 OA
HETATM   51  C1  BDP A1003       5.153 -10.602  31.193  1.00 64.25     0.270 C 
HETATM   52  O5  BDP A1003       5.046  -9.817  29.988  1.00 67.49    -0.318 OA
HETATM   53  C5  BDP A1003       3.970 -10.184  29.052  1.00 69.96     0.237 C 
ENDROOT
TORSDOF 12
