REMARK  0 active torsions:
REMARK  status: ('A' for Active; 'I' for Inactive)
REMARK       I    between atoms: O4_3888  and  C4_3883 
REMARK       I    between atoms: O4_3888  and  C1_3892 
REMARK       I    between atoms: C1_3880  and  O3_3871 
REMARK       I    between atoms: C5_3884  and  C6_3885 
REMARK       I    between atoms: O3_3901  and  C3_3894 
REMARK       I    between atoms: O3_3901  and  C1_3910 
REMARK       I    between atoms: N_3900  and  C2_3893 
REMARK       I    between atoms: N_3900  and  C7_3898 
REMARK       I    between atoms: C5_3896  and  C6_3897 
REMARK       I    between atoms: C4_3895  and  O4_3902 
REMARK       I    between atoms: S_3909  and  O4_3902 
REMARK       I    between atoms: C6_3866  and  C5_3865 
REMARK       I    between atoms: S_3879  and  O4_3872 
REMARK       I    between atoms: N_3870  and  C2_3862 
REMARK       I    between atoms: N_3870  and  C7_3867 
REMARK       I    between atoms: C4_3864  and  O4_3872 
REMARK       I    between atoms: C3_3863  and  O3_3871 
REMARK       I    between atoms: C6_3915  and  C5_3914 
ROOT
HETATM    1  O3  BDP A 609      26.174  24.823  -5.892  1.00 15.53    -0.218 OA
HETATM    2  C3  BDP A 609      26.930  24.303  -4.806  1.00 15.57     0.217 C 
HETATM    3  O4  BDP A 609      28.861  25.542  -5.466  1.00 19.75    -0.326 OA
HETATM    4  C1  BDP A 609      26.822  23.598  -2.402  1.00 13.28     0.270 C 
HETATM    5  C5  BDP A 609      28.705  24.882  -3.144  1.00 16.05     0.234 C 
HETATM    6  O5  BDP A 609      27.769  24.637  -2.078  1.00 13.59    -0.318 OA
HETATM    7  O6B BDP A 609      29.258  27.030  -2.291  1.00 15.79    -0.646 OA
HETATM    8  C2  BDP A 609      26.003  23.979  -3.643  1.00 13.63     0.241 C 
HETATM    9  C4  BDP A 609      27.949  25.344  -4.384  1.00 16.32     0.189 C 
HETATM   10  C6  BDP A 609      29.697  25.915  -2.641  1.00 17.64     0.216 C 
HETATM   11  O6A BDP A 609      30.902  25.582  -2.639  1.00 18.61    -0.646 OA
HETATM   12  O2  BDP A 609      25.161  22.892  -3.999  1.00 13.80    -0.215 OA
HETATM   13  O7  ASG A 610      31.819  24.776  -7.605  1.00 32.93    -0.271 OA
HETATM   14  O3  ASG A 610      31.538  28.340  -8.281  1.00 30.96    -0.326 OA
HETATM   15  OSB ASG A 610      29.898  29.410 -10.792  1.00 38.16    -0.572 OA
HETATM   16  OSA ASG A 610      27.507  29.527 -10.520  1.00 38.61    -0.572 OA
HETATM   17  N   ASG A 610      31.476  26.449  -6.133  1.00 28.80    -0.232 NA
HETATM   18  C5  ASG A 610      28.068  28.753  -6.855  1.00 29.42     0.182 C 
HETATM   19  C3  ASG A 610      30.455  28.307  -7.330  1.00 28.38     0.176 C 
HETATM   20  C7  ASG A 610      32.125  25.374  -6.570  1.00 31.63     0.252 C 
HETATM   21  O6  ASG A 610      25.825  29.389  -6.182  1.00 32.87    -0.218 OA
HETATM   22  O5  ASG A 610      27.907  27.388  -6.421  1.00 26.39    -0.327 OA
HETATM   23  C4  ASG A 610      29.137  28.807  -7.951  1.00 28.79     0.196 C 
HETATM   24  S   ASG A 610      28.674  28.631 -10.515  1.00 37.27     0.252 S 
HETATM   25  C2  ASG A 610      30.269  26.891  -6.804  1.00 26.39     0.192 C 
HETATM   26  C1  ASG A 610      29.103  26.854  -5.822  1.00 24.59     0.262 C 
HETATM   27  C6  ASG A 610      26.704  29.253  -7.291  1.00 31.22     0.214 C 
HETATM   28  OSC ASG A 610      28.480  27.583 -11.536  1.00 38.58    -0.572 OA
HETATM   29  O4  ASG A 610      28.744  27.962  -9.055  1.00 34.14    -0.235 OA
HETATM   30  C8  ASG A 610      33.301  24.889  -5.729  1.00 32.51     0.100 C 
HETATM   31  C8  ASG A 608      23.315  20.138  -2.542  1.00 15.84     0.100 C 
HETATM   32  C6  ASG A 608      28.038  23.326   3.187  1.00 13.09     0.214 C 
HETATM   33  O7  ASG A 608      22.931  22.008  -1.118  1.00 14.15    -0.271 OA
HETATM   34  S   ASG A 608      26.020  25.870   1.147  1.00  8.68     0.252 S 
HETATM   35  OSC ASG A 608      25.114  26.261   0.049  1.00  9.34    -0.572 OA
HETATM   36  N   ASG A 608      24.835  20.844  -0.769  1.00 14.25    -0.232 NA
HETATM   37  O6  ASG A 608      29.290  23.944   2.903  1.00 13.76    -0.218 OA
HETATM   38  O5  ASG A 608      26.401  21.741   2.486  1.00 14.21    -0.325 OA
HETATM   39  C1  ASG A 608      25.795  20.903   1.482  1.00 14.86     0.294 C 
HETATM   40  C4  ASG A 608      27.008  23.439   0.861  1.00 11.85     0.196 C 
HETATM   41  OSB ASG A 608      27.387  26.211   0.715  1.00  7.32    -0.572 OA
HETATM   42  C3  ASG A 608      26.442  22.592  -0.258  1.00 12.99     0.176 C 
HETATM   43  O4  ASG A 608      26.017  24.304   1.443  1.00  9.79    -0.235 OA
HETATM   44  C5  ASG A 608      27.505  22.532   1.988  1.00 13.47     0.182 C 
HETATM   45  O1  ASG A 608      24.712  20.263   2.060  1.00 17.46    -0.188 OA
HETATM   46  C7  ASG A 608      23.690  21.084  -1.408  1.00 15.19     0.252 C 
HETATM   47  C2  ASG A 608      25.303  21.735   0.281  1.00 13.98     0.195 C 
HETATM   48  O3  ASG A 608      25.969  23.433  -1.327  1.00 11.02    -0.327 OA
HETATM   49  OSA ASG A 608      25.734  26.515   2.445  1.00  8.62    -0.572 OA
HETATM   50  O6B GCD A 611      31.561  33.626  -7.642  1.00 39.46    -0.642 OA
HETATM   51  C6  GCD A 611      31.864  33.040  -8.755  1.00 39.19     0.234 C 
HETATM   52  C5  GCD A 611      32.712  31.796  -8.672  1.00 38.77     0.159 C 
HETATM   53  C2  GCD A 611      33.771  29.011  -8.701  1.00 38.10     0.243 C 
HETATM   54  O6A GCD A 611      31.498  33.292  -9.968  1.00 38.82    -0.642 OA
HETATM   55  C4  GCD A 611      34.052  31.710  -8.471  1.00 38.89     0.040 C 
HETATM   56  C1  GCD A 611      32.466  29.337  -8.048  1.00 34.58     0.275 C 
HETATM   57  O3  GCD A 611      35.882  29.977  -9.159  1.00 38.28    -0.216 OA
HETATM   58  O5  GCD A 611      31.950  30.538  -8.810  1.00 35.72    -0.298 OA
HETATM   59  O2  GCD A 611      34.378  27.851  -8.059  1.00 42.99    -0.215 OA
HETATM   60  C3  GCD A 611      34.682  30.268  -8.428  1.00 40.08     0.212 C 
ENDROOT
TORSDOF 16
