REMARK  0 active torsions:
REMARK  status: ('A' for Active; 'I' for Inactive)
REMARK       I    between atoms: C1_3887  and  O1_3893 
REMARK       I    between atoms: C2_3888  and  O2_3894 
REMARK       I    between atoms: C6_3892  and  C5_3891 
REMARK       I    between atoms: O1_3893  and  C4_3906 
REMARK       I    between atoms: S_3899  and  O2_3894 
REMARK       I    between atoms: O1_3875  and  C4_3890 
REMARK       I    between atoms: S2_3953  and  O6_3948 
REMARK       I    between atoms: C5_3942  and  C6_3943 
REMARK       I    between atoms: O1_3945  and  C1_3938 
REMARK       I    between atoms: O1_3945  and  C4_3960 
REMARK       I    between atoms: O6_3948  and  C6_3943 
REMARK       I    between atoms: C2_3939  and  N_3944 
REMARK       I    between atoms: S1_3949  and  N_3944 
REMARK       I    between atoms: C4_3941  and  O1_3928 
REMARK       I    between atoms: O1_3963  and  C1_3957 
REMARK       I    between atoms: O1_3963  and  C4_3976 
REMARK       I    between atoms: C5_3961  and  C6_3962 
REMARK       I    between atoms: O2_3964  and  C2_3958 
REMARK       I    between atoms: O2_3964  and  S_3969 
REMARK       I    between atoms: C1_3868  and  O1_3875 
REMARK       I    between atoms: S1_3879  and  N_3874 
REMARK       I    between atoms: S2_3883  and  O6_3878 
REMARK       I    between atoms: C2_3869  and  N_3874 
REMARK       I    between atoms: O6_3878  and  C6_3873 
REMARK       I    between atoms: C6_3873  and  C5_3872 
REMARK       I    between atoms: O1_3858  and  C4_3871 
REMARK       I    between atoms: S_3934  and  O2_3929 
REMARK       I    between atoms: C2_3923  and  O2_3929 
REMARK       I    between atoms: C5_3926  and  C6_3927 
REMARK       I    between atoms: O1_3910  and  C4_3925 
REMARK       I    between atoms: O1_3928  and  C1_3922 
REMARK       I    between atoms: C6_3978  and  C5_3977 
REMARK       I    between atoms: C6_3978  and  O6_3983 
REMARK       I    between atoms: C2_3974  and  N_3979 
REMARK       I    between atoms: S1_3984  and  N_3979 
REMARK       I    between atoms: O6_3983  and  S2_3988 
REMARK       I    between atoms: C2_3853  and  O2_3859 
REMARK       I    between atoms: C6_3857  and  C5_3856 
REMARK       I    between atoms: O1_3858  and  C1_3852 
REMARK       I    between atoms: O2_3859  and  S_3864 
REMARK       I    between atoms: C5_3907  and  C6_3908 
REMARK       I    between atoms: S1_3914  and  N_3909 
REMARK       I    between atoms: O1_3910  and  C1_3903 
REMARK       I    between atoms: C2_3904  and  N_3909 
REMARK       I    between atoms: O6_3913  and  C6_3908 
REMARK       I    between atoms: O6_3913  and  S2_3918 
ROOT
HETATM    1  C1  IDS B 247      46.853   1.271  99.871  1.00 36.74     0.269 C 
HETATM    2  O5  IDS B 247      47.511   0.344  99.003  1.00 36.79    -0.318 OA
HETATM    3  C2  IDS B 247      47.685   2.546 100.109  1.00 37.52     0.226 C 
HETATM    4  C6  IDS B 247      49.506  -0.856  98.291  1.00 38.36     0.216 C 
HETATM    5  O61 IDS B 247      50.702  -1.090  98.255  1.00 37.46    -0.646 OA
HETATM    6  O3  IDS B 247      49.298   4.056  99.176  1.00 38.86    -0.218 OA
HETATM    7  O1  IDS B 247      46.627   0.727 101.122  1.00 38.43    -0.326 OA
HETATM    8  C3  IDS B 247      48.514   2.902  98.890  1.00 39.11     0.216 C 
HETATM    9  O1S IDS B 247      46.766   5.692 101.701  1.00 35.40    -0.572 OA
HETATM   10  S   IDS B 247      47.139   5.250 100.370  1.00 36.24     0.252 S 
HETATM   11  O2S IDS B 247      48.558   5.398 100.128  1.00 37.04    -0.572 OA
HETATM   12  O3S IDS B 247      46.310   5.859  99.326  1.00 38.13    -0.572 OA
HETATM   13  O2  IDS B 247      46.804   3.658 100.375  1.00 36.28    -0.233 OA
HETATM   14  C5  IDS B 247      48.961   0.382  99.027  1.00 37.09     0.234 C 
HETATM   15  O62 IDS B 247      48.761  -1.626  97.714  1.00 39.33    -0.646 OA
HETATM   16  C4  IDS B 247      49.438   1.757  98.404  1.00 37.02     0.189 C 
HETATM   17  O5S SGN B 250      50.854   2.215 108.911  1.00 40.04    -0.572 OA
HETATM   18  S2  SGN B 250      50.602   0.798 108.895  1.00 38.10     0.252 S 
HETATM   19  C5  SGN B 250      47.074   0.136 110.348  1.00 39.02     0.179 C 
HETATM   20  O3S SGN B 250      44.549   4.667 112.872  1.00 33.65    -0.577 OA
HETATM   21  C3  SGN B 250      44.670   0.906 110.059  1.00 36.52     0.210 C 
HETATM   22  O1  SGN B 250      45.763   0.668 112.453  1.00 38.81    -0.326 OA
HETATM   23  O4S SGN B 250      50.227   0.310 107.576  1.00 39.83    -0.572 OA
HETATM   24  O6  SGN B 250      49.362   0.610 109.827  1.00 37.56    -0.235 OA
HETATM   25  O3  SGN B 250      43.632   1.146 109.120  1.00 35.36    -0.218 OA
HETATM   26  O6S SGN B 250      51.681   0.041 109.511  1.00 37.16    -0.572 OA
HETATM   27  O1S SGN B 250      43.825   5.082 110.617  1.00 35.87    -0.577 OA
HETATM   28  C1  SGN B 250      46.199   1.839 111.789  1.00 38.79     0.263 C 
HETATM   29  C2  SGN B 250      45.041   2.229 110.788  1.00 33.58     0.207 C 
HETATM   30  S1  SGN B 250      43.577   4.334 111.839  1.00 34.17     0.227 S 
HETATM   31  N   SGN B 250      43.841   2.715 111.540  1.00 29.84    -0.162 NA
HETATM   32  C4  SGN B 250      45.916   0.372 109.319  1.00 37.39     0.180 C 
HETATM   33  O5  SGN B 250      47.356   1.403 111.055  1.00 38.81    -0.327 OA
HETATM   34  C6  SGN B 250      48.367  -0.360 109.689  1.00 39.43     0.198 C 
HETATM   35  O2S SGN B 250      42.190   4.431 112.321  1.00 33.77    -0.577 OA
HETATM   36  O1  IDS B 251      43.741  -2.672 115.449  1.00 38.15    -0.326 OA
HETATM   37  C1  IDS B 251      43.752  -1.994 114.180  1.00 39.27     0.269 C 
HETATM   38  C5  IDS B 251      45.836  -0.709 114.292  1.00 38.59     0.234 C 
HETATM   39  O2  IDS B 251      41.705  -0.643 114.082  1.00 36.26    -0.233 OA
HETATM   40  O5  IDS B 251      45.080  -1.808 113.667  1.00 37.46    -0.318 OA
HETATM   41  C3  IDS B 251      43.730   0.497 113.581  1.00 38.40     0.216 C 
HETATM   42  C2  IDS B 251      43.090  -0.608 114.434  1.00 39.00     0.226 C 
HETATM   43  O3  IDS B 251      43.123   1.737 113.891  1.00 37.81    -0.218 OA
HETATM   44  O61 IDS B 251      47.759  -1.673 113.138  1.00 38.57    -0.646 OA
HETATM   45  O62 IDS B 251      48.213  -0.288 114.649  1.00 39.57    -0.646 OA
HETATM   46  S   IDS B 251      40.965  -1.519 112.940  1.00 36.33     0.252 S 
HETATM   47  O2S IDS B 251      41.480  -2.876 112.998  1.00 35.94    -0.572 OA
HETATM   48  O3S IDS B 251      39.560  -1.432 113.265  1.00 38.39    -0.572 OA
HETATM   49  C6  IDS B 251      47.367  -0.900 114.018  1.00 39.47     0.216 C 
HETATM   50  C4  IDS B 251      45.265   0.629 113.731  1.00 38.18     0.189 C 
HETATM   51  O1S IDS B 251      41.297  -0.860 111.685  1.00 35.38    -0.572 OA
HETATM   52  C1  SGN B 246      50.033   2.347  96.070  1.00 36.99     0.263 C 
HETATM   53  O2S SGN B 246      47.297   6.444  96.790  1.00 39.05    -0.577 OA
HETATM   54  S1  SGN B 246      48.539   6.077  96.137  1.00 37.62     0.227 S 
HETATM   55  C3  SGN B 246      47.969   3.031  94.730  1.00 35.52     0.210 C 
HETATM   56  S2  SGN B 246      52.282   0.221  92.495  1.00 38.45     0.252 S 
HETATM   57  C2  SGN B 246      49.218   3.563  95.447  1.00 34.56     0.207 C 
HETATM   58  O1  SGN B 246      49.228   1.641  96.999  1.00 36.93    -0.326 OA
HETATM   59  N   SGN B 246      48.827   4.500  96.500  1.00 33.08    -0.162 NA
HETATM   60  O6S SGN B 246      52.785   0.902  93.655  1.00 39.47    -0.572 OA
HETATM   61  O3S SGN B 246      49.677   6.782  96.689  1.00 38.13    -0.577 OA
HETATM   62  O4S SGN B 246      52.458  -1.205  92.556  1.00 38.51    -0.572 OA
HETATM   63  O1S SGN B 246      48.477   6.187  94.693  1.00 37.03    -0.577 OA
HETATM   64  O6  SGN B 246      50.763   0.483  92.475  1.00 36.05    -0.235 OA
HETATM   65  C6  SGN B 246      49.791  -0.126  93.281  1.00 37.52     0.198 C 
HETATM   66  O5  SGN B 246      50.397   1.432  95.038  1.00 36.74    -0.327 OA
HETATM   67  O5S SGN B 246      52.755   0.801  91.263  1.00 39.43    -0.572 OA
HETATM   68  C5  SGN B 246      49.239   0.905  94.293  1.00 38.34     0.179 C 
HETATM   69  O3  SGN B 246      47.247   4.098  94.155  1.00 34.61    -0.218 OA
HETATM   70  C4  SGN B 246      48.420   2.099  93.639  1.00 37.30     0.180 C 
HETATM   71  S   IDS B 249      48.465  -3.301 106.826  1.00 40.74     0.252 S 
HETATM   72  C2  IDS B 249      45.830  -2.667 107.279  1.00 39.20     0.226 C 
HETATM   73  O62 IDS B 249      43.348   0.525 104.420  1.00 39.94    -0.646 OA
HETATM   74  O61 IDS B 249      41.964   0.316 105.983  1.00 41.70    -0.646 OA
HETATM   75  O2  IDS B 249      47.056  -3.345 107.622  1.00 40.77    -0.233 OA
HETATM   76  O3  IDS B 249      45.280  -4.456 105.803  1.00 40.65    -0.218 OA
HETATM   77  O5  IDS B 249      45.218  -0.415 106.486  1.00 39.65    -0.318 OA
HETATM   78  C5  IDS B 249      43.953  -1.038 106.160  1.00 39.74     0.234 C 
HETATM   79  C6  IDS B 249      43.037  -0.005 105.472  1.00 40.93     0.216 C 
HETATM   80  C3  IDS B 249      45.492  -3.052 105.858  1.00 39.63     0.216 C 
HETATM   81  O3S IDS B 249      49.455  -3.844 107.731  1.00 40.80    -0.572 OA
HETATM   82  C4  IDS B 249      44.268  -2.294 105.276  1.00 37.75     0.189 C 
HETATM   83  O1  IDS B 249      45.567  -0.861 108.716  1.00 35.44    -0.326 OA
HETATM   84  O2S IDS B 249      48.724  -1.928 106.465  1.00 39.89    -0.572 OA
HETATM   85  C1  IDS B 249      45.996  -1.131 107.434  1.00 38.13     0.269 C 
HETATM   86  O1S IDS B 249      48.254  -4.137 105.653  1.00 41.06    -0.572 OA
HETATM   87  C6  SGN B 252      42.213  -4.719 117.094  1.00 36.47     0.198 C 
HETATM   88  O3S SGN B 252      49.937  -6.796 115.733  1.00 35.13    -0.577 OA
HETATM   89  O3  SGN B 252      46.338  -3.631 114.452  1.00 39.71    -0.218 OA
HETATM   90  C2  SGN B 252      46.304  -5.483 115.903  1.00 34.73     0.210 C 
HETATM   91  S1  SGN B 252      48.560  -6.845 115.246  1.00 36.95     0.227 S 
HETATM   92  O4S SGN B 252      39.808  -3.552 114.954  1.00 35.37    -0.572 OA
HETATM   93  N   SGN B 252      47.793  -5.542 115.939  1.00 34.50    -0.162 NA
HETATM   94  C4  SGN B 252      44.256  -4.048 115.618  1.00 37.44     0.180 C 
HETATM   95  O5  SGN B 252      44.284  -5.902 117.248  1.00 37.49    -0.325 OA
HETATM   96  O1S SGN B 252      47.869  -8.042 115.691  1.00 34.91    -0.577 OA
HETATM   97  O6S SGN B 252      39.401  -5.342 116.551  1.00 38.43    -0.572 OA
HETATM   98  C1  SGN B 252      45.739  -5.959 117.263  1.00 38.49     0.295 C 
HETATM   99  C3  SGN B 252      45.826  -4.053 115.673  1.00 38.00     0.210 C 
HETATM  100  O6  SGN B 252      41.676  -4.897 115.801  1.00 36.78    -0.235 OA
HETATM  101  O1  SGN B 252      46.271  -5.117 118.310  1.00 39.99    -0.188 OA
HETATM  102  O2S SGN B 252      48.480  -6.644 113.817  1.00 39.58    -0.577 OA
HETATM  103  O5S SGN B 252      40.092  -5.871 114.286  1.00 37.98    -0.572 OA
HETATM  104  S2  SGN B 252      40.150  -4.903 115.377  1.00 37.28     0.252 S 
HETATM  105  C5  SGN B 252      43.739  -4.591 116.990  1.00 36.85     0.179 C 
HETATM  106  O62 IDS B 245      44.086   5.361  90.486  1.00 39.23    -0.646 OA
HETATM  107  C4  IDS B 245      46.279   2.738  88.968  1.00 35.66     0.077 C 
HETATM  108  C3  IDS B 245      47.149   1.502  89.334  1.00 36.84     0.189 C 
HETATM  109  C2  IDS B 245      46.831   0.999  90.711  1.00 38.01     0.224 C 
HETATM  110  O1S IDS B 245      48.827  -2.162  90.618  1.00 36.13    -0.572 OA
HETATM  111  C6  IDS B 245      45.081   4.850  89.985  1.00 38.09     0.214 C 
HETATM  112  O2S IDS B 245      46.956  -2.113  92.143  1.00 35.13    -0.572 OA
HETATM  113  O1  IDS B 245      47.250   1.641  92.956  1.00 37.92    -0.326 OA
HETATM  114  O2  IDS B 245      47.712  -0.083  91.003  1.00 35.16    -0.233 OA
HETATM  115  S   IDS B 245      47.494  -1.638  90.879  1.00 36.26     0.252 S 
HETATM  116  C5  IDS B 245      45.413   3.344  90.187  1.00 37.00     0.207 C 
HETATM  117  O5  IDS B 245      46.058   3.143  91.546  1.00 39.40    -0.320 OA
HETATM  118  C1  IDS B 245      47.088   2.145  91.654  1.00 40.39     0.268 C 
HETATM  119  O3  IDS B 245      46.908   0.481  88.396  1.00 37.14    -0.221 OA
HETATM  120  O3S IDS B 245      46.591  -1.824  89.765  1.00 38.98    -0.572 OA
HETATM  121  O61 IDS B 245      45.804   5.564  89.297  1.00 38.34    -0.646 OA
HETATM  122  O5S SGN B 248      40.719   0.715  99.643  1.00 34.39    -0.572 OA
HETATM  123  C5  SGN B 248      44.482  -0.001 102.078  1.00 36.07     0.179 C 
HETATM  124  O3S SGN B 248      44.565  -5.514 102.135  1.00 36.11    -0.577 OA
HETATM  125  O1S SGN B 248      46.788  -5.766 101.294  1.00 39.27    -0.577 OA
HETATM  126  S1  SGN B 248      45.978  -5.406 102.439  1.00 36.99     0.227 S 
HETATM  127  O1  SGN B 248      44.726  -1.774 104.082  1.00 35.39    -0.326 OA
HETATM  128  O6S SGN B 248      41.921   2.781 100.008  1.00 34.41    -0.572 OA
HETATM  129  C2  SGN B 248      45.541  -2.719 102.062  1.00 34.44     0.207 C 
HETATM  130  O6  SGN B 248      42.978   0.655 100.335  1.00 35.12    -0.235 OA
HETATM  131  C6  SGN B 248      43.629   1.127 101.476  1.00 36.25     0.198 C 
HETATM  132  O5  SGN B 248      43.620  -1.182 102.218  1.00 35.43    -0.327 OA
HETATM  133  C3  SGN B 248      46.481  -1.511 101.922  1.00 37.25     0.210 C 
HETATM  134  C4  SGN B 248      45.738  -0.379 101.215  1.00 38.53     0.180 C 
HETATM  135  O2S SGN B 248      46.333  -6.124 103.658  1.00 35.85    -0.577 OA
HETATM  136  C1  SGN B 248      44.284  -2.258 102.875  1.00 36.13     0.263 C 
HETATM  137  O3  SGN B 248      47.619  -1.883 101.158  1.00 36.18    -0.218 OA
HETATM  138  O4S SGN B 248      42.453   1.393  98.097  1.00 36.02    -0.572 OA
HETATM  139  N   SGN B 248      46.253  -3.812 102.783  1.00 33.13    -0.162 NA
HETATM  140  S2  SGN B 248      41.964   1.437  99.463  1.00 34.73     0.252 S 
ENDROOT
TORSDOF 46
