REMARK  0 active torsions:
REMARK  status: ('A' for Active; 'I' for Inactive)
REMARK       I    between atoms: C5_3786  and  C6_3787 
REMARK       I    between atoms: O2_3789  and  C2_3783 
REMARK       I    between atoms: O2_3789  and  S_3794 
REMARK       I    between atoms: C4_3801  and  O1_3788 
REMARK       I    between atoms: O1_3788  and  C1_3782 
REMARK       I    between atoms: O1_3770  and  C4_3785 
REMARK       I    between atoms: S2_3743  and  O6_3738 
REMARK       I    between atoms: C2_3729  and  N_3734 
REMARK       I    between atoms: N_3734  and  S1_3739 
REMARK       I    between atoms: C4_3731  and  O1_3721 
REMARK       I    between atoms: O1_3735  and  C1_3728 
REMARK       I    between atoms: O1_3735  and  C4_3750 
REMARK       I    between atoms: C5_3732  and  C6_3733 
REMARK       I    between atoms: C6_3733  and  O6_3738 
REMARK       I    between atoms: S1_3809  and  N_3804 
REMARK       I    between atoms: C1_3798  and  O1_3805 
REMARK       I    between atoms: C5_3802  and  C6_3803 
REMARK       I    between atoms: O6_3808  and  C6_3803 
REMARK       I    between atoms: O6_3808  and  S2_3813 
REMARK       I    between atoms: C4_3820  and  O1_3805 
REMARK       I    between atoms: C2_3799  and  N_3804 
REMARK       I    between atoms: C2_3834  and  N_3839 
REMARK       I    between atoms: S1_3844  and  N_3839 
REMARK       I    between atoms: S2_3848  and  O6_3843 
REMARK       I    between atoms: C6_3838  and  C5_3837 
REMARK       I    between atoms: C6_3838  and  O6_3843 
REMARK       I    between atoms: C4_3836  and  O1_3823 
REMARK       I    between atoms: C3_3720  and  C2_3719 
REMARK       I    between atoms: O2_3722  and  C2_3719 
REMARK       I    between atoms: O2_3722  and  S_3724 
REMARK       I    between atoms: C2_3719  and  C1_3718 
REMARK       I    between atoms: C1_3718  and  O1_3721 
REMARK       I    between atoms: C2_3748  and  O2_3754 
REMARK       I    between atoms: O2_3754  and  S_3759 
REMARK       I    between atoms: C5_3751  and  C6_3752 
REMARK       I    between atoms: C1_3747  and  O1_3753 
REMARK       I    between atoms: C4_3766  and  O1_3753 
REMARK       I    between atoms: C2_3818  and  O2_3824 
REMARK       I    between atoms: C1_3817  and  O1_3823 
REMARK       I    between atoms: C5_3821  and  C6_3822 
REMARK       I    between atoms: S_3829  and  O2_3824 
REMARK       I    between atoms: O1_3770  and  C1_3763 
REMARK       I    between atoms: S1_3774  and  N_3769 
REMARK       I    between atoms: N_3769  and  C2_3764 
REMARK       I    between atoms: S2_3778  and  O6_3773 
REMARK       I    between atoms: C6_3768  and  C5_3767 
REMARK       I    between atoms: C6_3768  and  O6_3773 
ROOT
HETATM    1  C5  IDS A 249      49.703  27.476   6.416  1.00 35.41     0.234 C 
HETATM    2  O2  IDS A 249      46.309  25.114   6.412  1.00 38.67    -0.233 OA
HETATM    3  O1S IDS A 249      45.453  25.212   8.689  1.00 41.51    -0.572 OA
HETATM    4  O5  IDS A 249      48.424  28.061   6.079  1.00 35.28    -0.318 OA
HETATM    5  O1  IDS A 249      47.669  26.875   4.256  1.00 38.14    -0.326 OA
HETATM    6  O62 IDS A 249      50.473  29.716   6.893  1.00 39.37    -0.646 OA
HETATM    7  O3  IDS A 249      48.780  24.789   8.245  1.00 37.40    -0.218 OA
HETATM    8  S   IDS A 249      45.068  25.583   7.337  1.00 40.85     0.252 S 
HETATM    9  C3  IDS A 249      48.172  25.872   7.679  1.00 38.56     0.216 C 
HETATM   10  C6  IDS A 249      50.764  28.593   6.521  1.00 37.29     0.216 C 
HETATM   11  O3S IDS A 249      43.915  24.849   6.862  1.00 40.61    -0.572 OA
HETATM   12  C2  IDS A 249      47.601  25.745   6.286  1.00 39.14     0.226 C 
HETATM   13  C1  IDS A 249      47.465  27.129   5.595  1.00 37.71     0.269 C 
HETATM   14  C4  IDS A 249      49.506  26.662   7.743  1.00 37.85     0.189 C 
HETATM   15  O2S IDS A 249      44.926  27.011   7.194  1.00 40.95    -0.572 OA
HETATM   16  O61 IDS A 249      51.937  28.370   6.222  1.00 37.38    -0.646 OA
HETATM   17  O3  SGN A 246      47.585  37.246  15.741  1.00 36.37    -0.218 OA
HETATM   18  S2  SGN A 246      43.314  34.162  19.660  1.00 36.56     0.252 S 
HETATM   19  O6S SGN A 246      42.573  34.289  18.436  1.00 36.57    -0.572 OA
HETATM   20  O2S SGN A 246      45.134  38.967  13.206  1.00 35.82    -0.577 OA
HETATM   21  C3  SGN A 246      46.911  36.007  15.769  1.00 37.56     0.210 C 
HETATM   22  C2  SGN A 246      45.518  36.146  15.138  1.00 34.23     0.207 C 
HETATM   23  O4S SGN A 246      43.292  32.827  20.198  1.00 37.90    -0.572 OA
HETATM   24  O5S SGN A 246      42.964  35.170  20.629  1.00 37.31    -0.572 OA
HETATM   25  N   SGN A 246      45.645  36.590  13.749  1.00 32.71    -0.162 NA
HETATM   26  C4  SGN A 246      46.730  35.579  17.200  1.00 38.63     0.177 C 
HETATM   27  O1  SGN A 246      45.498  33.762  14.495  1.00 37.30    -0.326 OA
HETATM   28  C5  SGN A 246      45.967  34.188  17.227  1.00 39.25     0.179 C 
HETATM   29  C6  SGN A 246      45.687  33.633  18.645  1.00 36.18     0.198 C 
HETATM   30  S1  SGN A 246      46.258  38.076  13.410  1.00 36.24     0.227 S 
HETATM   31  C1  SGN A 246      44.762  34.746  15.199  1.00 38.45     0.263 C 
HETATM   32  O1S SGN A 246      47.099  37.943  12.236  1.00 39.06    -0.577 OA
HETATM   33  O6  SGN A 246      44.780  34.475  19.304  1.00 34.79    -0.235 OA
HETATM   34  O5  SGN A 246      44.659  34.315  16.555  1.00 39.62    -0.327 OA
HETATM   35  O3S SGN A 246      47.023  38.423  14.588  1.00 35.41    -0.577 OA
HETATM   36  O3  SGN A 250      49.286  28.627   2.758  1.00 36.17    -0.218 OA
HETATM   37  O5S SGN A 250      41.867  25.272   2.464  1.00 38.74    -0.572 OA
HETATM   38  C4  SGN A 250      47.099  27.739   3.290  1.00 38.86     0.180 C 
HETATM   39  S1  SGN A 250      49.576  30.378  -0.039  1.00 33.30     0.227 S 
HETATM   40  O3S SGN A 250      49.254  31.049  -1.293  1.00 33.02    -0.577 OA
HETATM   41  C1  SGN A 250      46.296  28.061   0.536  1.00 37.58     0.263 C 
HETATM   42  O2S SGN A 250      50.940  29.823  -0.035  1.00 33.40    -0.577 OA
HETATM   43  C5  SGN A 250      45.837  27.055   2.662  1.00 37.22     0.179 C 
HETATM   44  O6  SGN A 250      44.037  25.638   3.355  1.00 40.14    -0.235 OA
HETATM   45  O1S SGN A 250      49.288  31.228   1.106  1.00 35.57    -0.577 OA
HETATM   46  O1  SGN A 250      46.758  26.741   0.319  1.00 40.25    -0.326 OA
HETATM   47  S2  SGN A 250      42.558  25.298   3.726  1.00 38.82     0.252 S 
HETATM   48  C6  SGN A 250      44.718  26.812   3.682  1.00 37.85     0.198 C 
HETATM   49  C3  SGN A 250      48.155  27.980   2.190  1.00 35.80     0.210 C 
HETATM   50  C2  SGN A 250      47.535  28.875   1.079  1.00 31.20     0.207 C 
HETATM   51  O6S SGN A 250      42.597  23.987   4.358  1.00 38.22    -0.572 OA
HETATM   52  O5  SGN A 250      45.314  27.912   1.576  1.00 36.05    -0.327 OA
HETATM   53  O4S SGN A 250      42.079  26.352   4.606  1.00 37.70    -0.572 OA
HETATM   54  N   SGN A 250      48.552  29.065  -0.006  1.00 27.83    -0.162 NA
HETATM   55  C1  SGN A 252      46.823  18.740  -1.417  1.00 37.43     0.295 C 
HETATM   56  C2  SGN A 252      46.415  19.701  -0.277  1.00 35.10     0.210 C 
HETATM   57  S1  SGN A 252      44.446  18.626   1.254  1.00 36.97     0.227 S 
HETATM   58  O3  SGN A 252      46.385  21.981   0.309  1.00 35.55    -0.218 OA
HETATM   59  O2S SGN A 252      44.710  19.396   2.452  1.00 39.68    -0.577 OA
HETATM   60  O1  SGN A 252      46.056  19.057  -2.596  1.00 38.07    -0.188 OA
HETATM   61  S2  SGN A 252      52.190  19.776  -0.627  1.00 37.83     0.252 S 
HETATM   62  C3  SGN A 252      46.756  21.122  -0.716  1.00 37.01     0.210 C 
HETATM   63  C6  SGN A 252      50.175  20.095  -2.382  1.00 37.86     0.198 C 
HETATM   64  O6S SGN A 252      52.100  18.368  -1.001  1.00 38.37    -0.572 OA
HETATM   65  O1S SGN A 252      45.194  17.384   1.202  1.00 36.90    -0.577 OA
HETATM   66  O3S SGN A 252      43.016  18.412   1.042  1.00 36.30    -0.577 OA
HETATM   67  N   SGN A 252      44.951  19.567  -0.019  1.00 31.67    -0.162 NA
HETATM   68  O5  SGN A 252      48.249  18.862  -1.685  1.00 35.93    -0.325 OA
HETATM   69  O6  SGN A 252      50.912  20.483  -1.242  1.00 37.65    -0.235 OA
HETATM   70  O5S SGN A 252      52.046  19.982   0.810  1.00 39.32    -0.572 OA
HETATM   71  C5  SGN A 252      48.677  20.188  -2.066  1.00 35.70     0.179 C 
HETATM   72  C4  SGN A 252      48.308  21.217  -0.951  1.00 36.36     0.180 C 
HETATM   73  O4S SGN A 252      53.363  20.440  -1.180  1.00 38.47    -0.572 OA
HETATM   74  C3  IDS A 245      48.677  36.841  21.090  1.00 40.99     0.216 C 
HETATM   75  O2S IDS A 245      48.860  32.408  19.944  1.00 36.22    -0.572 OA
HETATM   76  O2  IDS A 245      48.057  34.690  20.309  1.00 37.08    -0.235 OA
HETATM   77  O3S IDS A 245      49.535  33.655  21.909  1.00 38.15    -0.572 OA
HETATM   78  O3  IDS A 245      49.165  36.301  22.295  1.00 41.65    -0.218 OA
HETATM   79  C2  IDS A 245      48.845  35.836  19.990  1.00 38.16     0.200 C 
HETATM   80  C1  IDS A 245      48.324  36.486  18.734  1.00 36.95     0.176 C 
HETATM   81  O1  IDS A 245      48.034  35.490  17.787  1.00 36.53    -0.349 OA
HETATM   82  O1S IDS A 245      47.251  32.902  21.672  1.00 36.49    -0.572 OA
HETATM   83  S   IDS A 245      48.466  33.332  20.993  1.00 36.87     0.252 S 
HETATM   84  C2  IDS A 247      46.460  33.389  11.057  1.00 36.52     0.226 C 
HETATM   85  O2  IDS A 247      47.163  34.334  10.222  1.00 35.79    -0.233 OA
HETATM   86  S   IDS A 247      46.611  35.169   8.940  1.00 35.53     0.252 S 
HETATM   87  C5  IDS A 247      45.607  31.799  13.112  1.00 36.60     0.234 C 
HETATM   88  O1S IDS A 247      45.493  34.381   8.460  1.00 37.80    -0.572 OA
HETATM   89  O3  IDS A 247      44.841  35.075  11.594  1.00 36.67    -0.218 OA
HETATM   90  O3S IDS A 247      47.706  35.235   7.968  1.00 34.82    -0.572 OA
HETATM   91  O62 IDS A 247      46.220  30.506  15.049  1.00 37.71    -0.646 OA
HETATM   92  O61 IDS A 247      44.173  30.697  14.702  1.00 37.60    -0.646 OA
HETATM   93  O5  IDS A 247      47.040  31.838  12.891  1.00 35.40    -0.318 OA
HETATM   94  O2S IDS A 247      46.193  36.472   9.412  1.00 36.25    -0.572 OA
HETATM   95  C1  IDS A 247      47.456  32.359  11.626  1.00 35.73     0.269 C 
HETATM   96  C4  IDS A 247      45.075  33.284  13.221  1.00 38.02     0.189 C 
HETATM   97  C6  IDS A 247      45.319  30.945  14.362  1.00 37.11     0.216 C 
HETATM   98  O1  IDS A 247      47.556  31.364  10.672  1.00 35.76    -0.326 OA
HETATM   99  C3  IDS A 247      45.782  34.174  12.166  1.00 37.27     0.216 C 
HETATM  100  C2  IDS A 251      49.239  24.888  -1.442  1.00 38.48     0.226 C 
HETATM  101  C1  IDS A 251      48.783  23.699  -0.551  1.00 37.26     0.269 C 
HETATM  102  O62 IDS A 251      44.139  24.899  -0.837  1.00 38.98    -0.646 OA
HETATM  103  C4  IDS A 251      47.065  26.208  -0.906  1.00 39.18     0.189 C 
HETATM  104  C5  IDS A 251      46.573  24.734  -0.785  1.00 37.28     0.234 C 
HETATM  105  C6  IDS A 251      45.129  24.606  -0.188  1.00 38.46     0.216 C 
HETATM  106  S   IDS A 251      51.605  25.078  -0.048  1.00 38.81     0.252 S 
HETATM  107  O3  IDS A 251      49.023  27.248  -1.870  1.00 37.88    -0.218 OA
HETATM  108  O61 IDS A 251      44.958  24.210   0.969  1.00 39.22    -0.646 OA
HETATM  109  O3S IDS A 251      52.950  25.021  -0.570  1.00 37.42    -0.572 OA
HETATM  110  O2  IDS A 251      50.656  25.062  -1.360  1.00 39.98    -0.233 OA
HETATM  111  O2S IDS A 251      51.265  23.933   0.777  1.00 37.47    -0.572 OA
HETATM  112  O5  IDS A 251      47.529  24.019   0.076  1.00 35.93    -0.318 OA
HETATM  113  C3  IDS A 251      48.611  26.216  -0.994  1.00 38.02     0.216 C 
HETATM  114  O1S IDS A 251      51.309  26.339   0.618  1.00 39.71    -0.572 OA
HETATM  115  O1  IDS A 251      48.684  22.564  -1.431  1.00 36.48    -0.326 OA
HETATM  116  O5S SGN A 248      49.562  31.755  13.059  1.00 35.90    -0.572 OA
HETATM  117  O4S SGN A 248      51.926  32.222  12.828  1.00 35.06    -0.572 OA
HETATM  118  O2S SGN A 248      48.329  24.111  11.185  1.00 36.73    -0.577 OA
HETATM  119  O1  SGN A 248      49.275  27.963   8.645  1.00 39.46    -0.326 OA
HETATM  120  S1  SGN A 248      48.517  25.336  11.952  1.00 37.54     0.227 S 
HETATM  121  O3  SGN A 248      46.870  28.924  11.841  1.00 35.32    -0.218 OA
HETATM  122  O1S SGN A 248      47.615  25.463  13.077  1.00 39.16    -0.577 OA
HETATM  123  N   SGN A 248      48.191  26.564  10.890  1.00 33.62    -0.162 NA
HETATM  124  S2  SGN A 248      50.761  31.568  12.261  1.00 34.90     0.252 S 
HETATM  125  C4  SGN A 248      48.541  30.358  10.862  1.00 35.44     0.180 C 
HETATM  126  C6  SGN A 248      50.406  31.717   9.659  1.00 36.48     0.198 C 
HETATM  127  O6S SGN A 248      50.996  30.180  11.916  1.00 35.08    -0.572 OA
HETATM  128  O3S SGN A 248      49.896  25.517  12.362  1.00 37.57    -0.577 OA
HETATM  129  O5  SGN A 248      50.565  29.309   9.895  1.00 36.84    -0.327 OA
HETATM  130  C2  SGN A 248      48.873  27.886  10.983  1.00 34.86     0.207 C 
HETATM  131  C3  SGN A 248      47.834  29.003  10.803  1.00 35.55     0.210 C 
HETATM  132  C1  SGN A 248      49.938  28.031   9.844  1.00 38.38     0.263 C 
HETATM  133  O6  SGN A 248      50.435  32.292  10.928  1.00 34.34    -0.235 OA
HETATM  134  C5  SGN A 248      49.606  30.406   9.712  1.00 36.73     0.179 C 
ENDROOT
TORSDOF 47
