REMARK  0 active torsions:
REMARK  status: ('A' for Active; 'I' for Inactive)
REMARK       I    between atoms: C4_5673  and  O4_5681 
REMARK       I    between atoms: C6_5675  and  C5_5674 
REMARK       I    between atoms: C3_5672  and  O3_5680 
REMARK       I    between atoms: O4_5681  and  S_5688 
REMARK       I    between atoms: C7_5676  and  N_5679 
REMARK       I    between atoms: C2_5671  and  N_5679 
REMARK       I    between atoms: O3_5680  and  C1_5659 
REMARK       I    between atoms: C2_5641  and  N_5649 
REMARK       I    between atoms: C1_5640  and  O1_5648 
REMARK       I    between atoms: C5_5644  and  C6_5645 
REMARK       I    between atoms: C4_5643  and  O4_5651 
REMARK       I    between atoms: O4_5651  and  S_5658 
REMARK       I    between atoms: O1_5648  and  C4_5664 
REMARK       I    between atoms: N_5649  and  C7_5646 
REMARK       I    between atoms: C1_5629  and  O3_5650 
REMARK       I    between atoms: O3_5650  and  C3_5642 
REMARK       I    between atoms: C5_5635  and  C6_5636 
REMARK       I    between atoms: C6_5666  and  C5_5665 
ROOT
HETATM    1  C4  ASG A 812       3.818  47.600  75.472  0.40 21.98     0.196 C 
HETATM    2  C1  ASG A 812       6.524  48.045  76.371  0.40 18.33     0.294 C 
HETATM    3  O5  ASG A 812       5.758  49.022  75.696  0.40 19.61    -0.325 OA
HETATM    4  C6  ASG A 812       4.438  49.227  73.604  0.40 20.58     0.214 C 
HETATM    5  OSC ASG A 812       2.520  50.875  75.541  0.40 31.02    -0.572 OA
HETATM    6  O6  ASG A 812       5.494  49.808  72.842  0.40 21.54    -0.218 OA
HETATM    7  C3  ASG A 812       4.486  46.580  76.359  0.40 17.61     0.176 C 
HETATM    8  O4  ASG A 812       3.078  48.435  76.366  0.40 26.17    -0.235 OA
HETATM    9  O7  ASG A 812       6.581  47.474  79.773  0.40 19.17    -0.271 OA
HETATM   10  OSA ASG A 812       1.195  48.962  74.753  0.40 29.69    -0.572 OA
HETATM   11  C7  ASG A 812       6.545  46.353  79.252  0.40 19.71     0.252 C 
HETATM   12  S   ASG A 812       1.901  49.452  75.900  0.40 31.55     0.252 S 
HETATM   13  C8  ASG A 812       6.913  45.061  79.947  0.40 19.74     0.100 C 
HETATM   14  C2  ASG A 812       5.545  47.234  77.220  0.40 17.57     0.195 C 
HETATM   15  C5  ASG A 812       4.940  48.335  74.722  0.40 19.85     0.182 C 
HETATM   16  OSB ASG A 812       0.976  49.611  76.977  0.40 31.16    -0.572 OA
HETATM   17  O3  ASG A 812       3.587  46.030  77.311  0.40 16.41    -0.327 OA
HETATM   18  O1  ASG A 812       7.462  48.708  77.207  0.40 16.27    -0.188 OA
HETATM   19  N   ASG A 812       6.193  46.193  77.971  0.40 18.80    -0.232 NA
HETATM   20  C2  ASG A 810      -0.820  39.762  75.734  0.70 18.86     0.192 C 
HETATM   21  C1  ASG A 810      -0.328  40.762  76.796  0.70 18.88     0.262 C 
HETATM   22  O6  ASG A 810       1.500  39.423  79.875  0.70 26.61    -0.218 OA
HETATM   23  C5  ASG A 810      -0.165  38.972  78.408  0.70 21.32     0.182 C 
HETATM   24  O7  ASG A 810      -0.512  39.441  72.966  0.70  9.50    -0.271 OA
HETATM   25  C4  ASG A 810      -0.810  37.975  77.426  0.70 22.24     0.196 C 
HETATM   26  C6  ASG A 810       0.832  38.303  79.342  0.70 21.76     0.214 C 
HETATM   27  O4  ASG A 810       0.158  37.246  76.651  0.70 24.96    -0.235 OA
HETATM   28  O1  ASG A 810       0.513  41.726  76.169  0.70 19.59    -0.326 OA
HETATM   29  C8  ASG A 810      -2.639  40.390  72.511  0.70 10.01     0.100 C 
HETATM   30  N   ASG A 810      -1.655  40.323  74.697  0.70 14.30    -0.232 NA
HETATM   31  OSC ASG A 810       1.662  35.219  76.216  0.70 30.70    -0.572 OA
HETATM   32  O3  ASG A 810      -2.190  37.768  75.450  0.70 21.65    -0.326 OA
HETATM   33  S   ASG A 810       0.227  35.618  76.788  0.70 28.04     0.252 S 
HETATM   34  O5  ASG A 810       0.509  40.040  77.710  0.70 21.33    -0.327 OA
HETATM   35  OSB ASG A 810      -0.850  35.030  76.002  0.70 32.03    -0.572 OA
HETATM   36  C3  ASG A 810      -1.669  38.703  76.418  0.70 19.69     0.176 C 
HETATM   37  C7  ASG A 810      -1.505  40.015  73.403  0.70 11.24     0.252 C 
HETATM   38  OSA ASG A 810       0.175  35.296  78.210  0.70 27.40    -0.572 OA
HETATM   39  O6A GAD A 809      -7.422  38.023  77.466  0.70 16.89    -0.642 OA
HETATM   40  C1  GAD A 809      -3.456  37.714  75.026  0.70 20.07     0.275 C 
HETATM   41  C3  GAD A 809      -5.376  36.728  73.749  0.70 17.22     0.212 C 
HETATM   42  C5  GAD A 809      -5.506  37.433  76.218  0.70 19.30     0.159 C 
HETATM   43  O6B GAD A 809      -5.499  37.886  78.598  0.70 18.19    -0.642 OA
HETATM   44  C2  GAD A 809      -3.852  36.768  73.866  0.70 19.55     0.243 C 
HETATM   45  C4  GAD A 809      -6.094  37.262  75.019  0.70 20.40     0.040 C 
HETATM   46  O2  GAD A 809      -3.245  37.071  72.571  0.70 16.55    -0.215 OA
HETATM   47  C6  GAD A 809      -6.207  37.800  77.535  0.70 20.32     0.234 C 
HETATM   48  O3  GAD A 809      -5.831  35.401  73.374  0.70 16.81    -0.216 OA
HETATM   49  O5  GAD A 809      -4.078  37.329  76.265  0.70 21.44    -0.298 OA
HETATM   50  O3  GCT A 811       2.198  41.810  79.037  0.40 15.63    -0.218 OA
HETATM   51  C3  GCT A 811       2.395  42.601  77.881  0.40 17.51     0.217 C 
HETATM   52  O5  GCT A 811       2.475  44.468  75.930  0.40 20.53    -0.318 OA
HETATM   53  C2  GCT A 811       3.067  43.904  78.256  0.40 18.45     0.241 C 
HETATM   54  C6  GCT A 811       0.187  45.252  76.452  0.40 26.01     0.216 C 
HETATM   55  C4  GCT A 811       1.035  43.008  77.307  0.40 19.78     0.189 C 
HETATM   56  O2  GCT A 811       4.269  43.662  78.927  0.40 18.83    -0.215 OA
HETATM   57  O6A GCT A 811       0.450  46.406  75.976  0.40 27.99    -0.646 OA
HETATM   58  C5  GCT A 811       1.103  44.057  76.194  0.40 21.60     0.234 C 
HETATM   59  O6B GCT A 811      -0.851  45.044  77.139  0.40 28.23    -0.646 OA
HETATM   60  C1  GCT A 811       3.422  44.660  76.988  0.40 18.54     0.270 C 
ENDROOT
TORSDOF 16
