REMARK  0 active torsions:
REMARK  status: ('A' for Active; 'I' for Inactive)
REMARK       I    between atoms: O3_5699  and  C1_5678 
REMARK       I    between atoms: O3_5699  and  C3_5691 
REMARK       I    between atoms: C5_5693  and  C6_5694 
REMARK       I    between atoms: C2_5690  and  N_5698 
REMARK       I    between atoms: C7_5695  and  N_5698 
REMARK       I    between atoms: O4_5700  and  C4_5692 
REMARK       I    between atoms: O4_5700  and  S_5707 
REMARK       I    between atoms: O4_5670  and  C4_5662 
REMARK       I    between atoms: O4_5670  and  S_5677 
REMARK       I    between atoms: C5_5663  and  C6_5664 
REMARK       I    between atoms: C2_5660  and  N_5668 
REMARK       I    between atoms: C3_5661  and  O3_5669 
REMARK       I    between atoms: C4_5683  and  O1_5667 
REMARK       I    between atoms: O1_5667  and  C1_5659 
REMARK       I    between atoms: C7_5665  and  N_5668 
REMARK       I    between atoms: C1_5648  and  O3_5669 
REMARK       I    between atoms: C5_5684  and  C6_5685 
REMARK       I    between atoms: C5_5654  and  C6_5655 
ROOT
HETATM    1  O3  ASG A 812       3.542  45.966  77.191  0.30 11.21    -0.327 OA
HETATM    2  OSC ASG A 812       2.378  50.939  75.459  0.30 21.32    -0.572 OA
HETATM    3  O7  ASG A 812       6.359  47.315  79.793  0.30 15.84    -0.271 OA
HETATM    4  OSA ASG A 812       1.356  48.976  74.479  0.30 21.64    -0.572 OA
HETATM    5  O5  ASG A 812       5.797  48.871  75.497  0.30 15.85    -0.325 OA
HETATM    6  C5  ASG A 812       4.875  48.215  74.576  0.30 15.35     0.182 C 
HETATM    7  C6  ASG A 812       4.390  49.105  73.447  0.30 16.77     0.214 C 
HETATM    8  C2  ASG A 812       5.541  47.111  77.099  0.30 12.17     0.195 C 
HETATM    9  C3  ASG A 812       4.423  46.511  76.240  0.30 10.56     0.176 C 
HETATM   10  O6  ASG A 812       5.422  49.797  72.769  0.30 18.37    -0.218 OA
HETATM   11  C7  ASG A 812       6.413  46.213  79.221  0.30 14.96     0.252 C 
HETATM   12  C1  ASG A 812       6.549  47.969  76.312  0.30 13.86     0.294 C 
HETATM   13  N   ASG A 812       6.157  46.078  77.924  0.30 13.95    -0.232 NA
HETATM   14  OSB ASG A 812       0.878  49.459  76.710  0.30 22.89    -0.572 OA
HETATM   15  C8  ASG A 812       6.788  44.915  79.869  0.30 14.57     0.100 C 
HETATM   16  O4  ASG A 812       3.067  48.471  76.262  0.30 16.93    -0.235 OA
HETATM   17  S   ASG A 812       1.887  49.440  75.732  0.30 25.76     0.252 S 
HETATM   18  O1  ASG A 812       7.337  48.681  77.264  0.30 13.45    -0.188 OA
HETATM   19  C4  ASG A 812       3.750  47.558  75.395  0.30 14.42     0.196 C 
HETATM   20  O7  ASG A 810      -0.581  39.398  72.827  1.00  9.92    -0.271 OA
HETATM   21  O4  ASG A 810       0.090  37.221  76.742  1.00 16.58    -0.235 OA
HETATM   22  C5  ASG A 810      -0.251  39.085  78.344  1.00 13.49     0.182 C 
HETATM   23  C4  ASG A 810      -0.915  38.049  77.425  1.00 14.02     0.196 C 
HETATM   24  OSB ASG A 810      -1.406  35.156  76.951  1.00 28.58    -0.572 OA
HETATM   25  O6  ASG A 810       1.306  39.389  79.957  1.00 21.73    -0.218 OA
HETATM   26  C2  ASG A 810      -0.913  39.679  75.607  1.00 12.30     0.192 C 
HETATM   27  OSC ASG A 810       0.918  35.048  75.884  1.00 28.94    -0.572 OA
HETATM   28  S   ASG A 810       0.035  35.617  76.987  1.00 22.83     0.252 S 
HETATM   29  C8  ASG A 810      -2.691  40.392  72.344  1.00 10.18     0.100 C 
HETATM   30  C6  ASG A 810       0.718  38.403  79.256  1.00 17.97     0.214 C 
HETATM   31  O5  ASG A 810       0.486  40.004  77.496  1.00 12.62    -0.327 OA
HETATM   32  C3  ASG A 810      -1.772  38.687  76.373  1.00 12.97     0.176 C 
HETATM   33  OSA ASG A 810       0.484  35.426  78.344  1.00 26.14    -0.572 OA
HETATM   34  O1  ASG A 810       0.480  41.586  75.870  1.00 14.00    -0.326 OA
HETATM   35  C7  ASG A 810      -1.587  40.017  73.225  1.00  9.70     0.252 C 
HETATM   36  O3  ASG A 810      -2.243  37.663  75.456  1.00 15.58    -0.326 OA
HETATM   37  N   ASG A 810      -1.755  40.225  74.562  1.00 11.20    -0.232 NA
HETATM   38  C1  ASG A 810      -0.347  40.701  76.591  1.00 12.05     0.262 C 
HETATM   39  O3  GCT A 811       2.211  41.820  78.714  0.30 10.98    -0.218 OA
HETATM   40  O6B GCT A 811      -1.342  44.703  76.212  0.30 17.92    -0.646 OA
HETATM   41  C4  GCT A 811       0.850  43.049  77.139  0.30 11.65     0.189 C 
HETATM   42  C3  GCT A 811       2.230  42.692  77.693  0.30 13.14     0.217 C 
HETATM   43  C5  GCT A 811       0.919  44.044  75.983  0.30 13.12     0.234 C 
HETATM   44  C6  GCT A 811      -0.200  45.100  75.922  0.30 16.16     0.216 C 
HETATM   45  O5  GCT A 811       2.266  44.480  75.800  0.30 13.25    -0.318 OA
HETATM   46  O6A GCT A 811       0.030  46.268  75.532  0.30 18.85    -0.646 OA
HETATM   47  O2  GCT A 811       4.068  43.573  78.724  0.30 12.38    -0.215 OA
HETATM   48  C1  GCT A 811       3.221  44.631  76.841  0.30 12.04     0.270 C 
HETATM   49  C2  GCT A 811       2.857  44.001  78.167  0.30 11.08     0.241 C 
HETATM   50  C4  GAD A 809      -6.224  36.923  75.163  1.00 13.77     0.040 C 
HETATM   51  C5  GAD A 809      -5.662  37.275  76.311  1.00 13.67     0.159 C 
HETATM   52  O2  GAD A 809      -3.321  36.986  72.869  1.00 13.31    -0.215 OA
HETATM   53  C3  GAD A 809      -5.481  36.636  73.850  1.00 12.24     0.212 C 
HETATM   54  C1  GAD A 809      -3.653  37.731  75.155  1.00 12.51     0.275 C 
HETATM   55  C2  GAD A 809      -3.988  36.674  74.115  1.00 13.09     0.243 C 
HETATM   56  O6B GAD A 809      -5.686  37.452  78.622  1.00 16.81    -0.642 OA
HETATM   57  C6  GAD A 809      -6.368  37.548  77.562  1.00 15.52     0.234 C 
HETATM   58  O5  GAD A 809      -4.272  37.413  76.375  1.00 14.14    -0.298 OA
HETATM   59  O3  GAD A 809      -5.853  35.346  73.336  1.00 12.71    -0.216 OA
HETATM   60  O6A GAD A 809      -7.578  37.889  77.483  1.00 14.79    -0.642 OA
ENDROOT
TORSDOF 16
