REMARK  0 active torsions:
REMARK  status: ('A' for Active; 'I' for Inactive)
REMARK       I    between atoms: S2_9420  and  O6_9415 
REMARK       I    between atoms: C2_9406  and  N_9411 
REMARK       I    between atoms: O1_9412  and  C1_9405 
REMARK       I    between atoms: O1_9412  and  C4_9427 
REMARK       I    between atoms: C4_9408  and  O1_9395 
REMARK       I    between atoms: S1_9416  and  N_9411 
REMARK       I    between atoms: C5_9409  and  C6_9410 
REMARK       I    between atoms: O6_9415  and  C6_9410 
REMARK       I    between atoms: C5_9428  and  C6_9429 
REMARK       I    between atoms: O1_9430  and  C1_9424 
REMARK       I    between atoms: O1_9430  and  C4_9443 
REMARK       I    between atoms: C2_9425  and  O2_9431 
REMARK       I    between atoms: S_9436  and  O2_9431 
REMARK       I    between atoms: C6_9445  and  C5_9444 
REMARK       I    between atoms: C6_9445  and  O6_9450 
REMARK       I    between atoms: S2_9455  and  O6_9450 
REMARK       I    between atoms: S1_9451  and  N_9446 
REMARK       I    between atoms: N_9446  and  C2_9441 
REMARK       I    between atoms: C1_9389  and  O1_9395 
REMARK       I    between atoms: C4_9392  and  O1_9377 
REMARK       I    between atoms: O2_9396  and  C2_9390 
REMARK       I    between atoms: O2_9396  and  S_9401 
REMARK       I    between atoms: C6_9394  and  C5_9393 
REMARK       I    between atoms: O6_9380  and  C6_9375 
REMARK       I    between atoms: O6_9380  and  S2_9385 
REMARK       I    between atoms: C5_9374  and  C6_9375 
REMARK       I    between atoms: N_9376  and  C2_9371 
REMARK       I    between atoms: N_9376  and  S1_9381 
REMARK       I    between atoms: O1_9377  and  C1_9370 
ROOT
HETATM    1  S2  SGN D   4      88.122  16.980  38.808  1.00100.68     0.252 S 
HETATM    2  C2  SGN D   4      91.167  12.993  37.160  1.00100.66     0.207 C 
HETATM    3  O1  SGN D   4      89.597  11.304  37.999  1.00100.85    -0.326 OA
HETATM    4  O5S SGN D   4      87.628  16.043  37.834  1.00100.30    -0.572 OA
HETATM    5  O4S SGN D   4      88.899  18.026  38.216  1.00100.27    -0.572 OA
HETATM    6  O1S SGN D   4      92.796  13.742  34.869  1.00102.57    -0.577 OA
HETATM    7  O2S SGN D   4      94.211  12.190  36.021  1.00102.85    -0.577 OA
HETATM    8  C4  SGN D   4      91.210  14.280  39.290  1.00 99.24     0.180 C 
HETATM    9  S1  SGN D   4      92.992  12.381  35.285  1.00103.26     0.227 S 
HETATM   10  C5  SGN D   4      89.735  13.848  39.541  1.00 99.97     0.179 C 
HETATM   11  O5  SGN D   4      89.065  13.564  38.285  1.00100.62    -0.327 OA
HETATM   12  C3  SGN D   4      91.912  13.156  38.499  1.00 99.81     0.210 C 
HETATM   13  O6  SGN D   4      89.088  16.158  39.722  1.00100.52    -0.235 OA
HETATM   14  C6  SGN D   4      88.874  14.879  40.292  1.00100.28     0.198 C 
HETATM   15  C1  SGN D   4      89.690  12.595  37.433  1.00100.78     0.263 C 
HETATM   16  O6S SGN D   4      87.085  17.467  39.671  1.00100.16    -0.572 OA
HETATM   17  O3S SGN D   4      92.876  11.470  34.180  1.00102.73    -0.577 OA
HETATM   18  O3  SGN D   4      93.251  13.529  38.253  1.00 99.22    -0.218 OA
HETATM   19  N   SGN D   4      91.776  11.959  36.311  1.00101.94    -0.162 NA
HETATM   20  C5  IDS D   5      88.019   9.902  39.310  1.00103.46     0.234 C 
HETATM   21  O1  IDS D   5      87.379   7.131  38.628  1.00105.89    -0.326 OA
HETATM   22  C2  IDS D   5      88.744   8.306  36.988  1.00104.37     0.226 C 
HETATM   23  C6  IDS D   5      88.155  10.727  40.589  1.00103.30     0.216 C 
HETATM   24  S   IDS D   5      90.797   8.156  35.248  1.00105.26     0.252 S 
HETATM   25  O5  IDS D   5      88.895   8.769  39.380  1.00103.59    -0.318 OA
HETATM   26  C3  IDS D   5      88.126   9.724  36.787  1.00103.92     0.216 C 
HETATM   27  O3S IDS D   5      89.830   7.523  34.397  1.00104.97    -0.572 OA
HETATM   28  O3  IDS D   5      86.738   9.592  36.542  1.00104.10    -0.218 OA
HETATM   29  O61 IDS D   5      89.197  10.776  41.207  1.00102.93    -0.646 OA
HETATM   30  O1S IDS D   5      91.168   9.459  34.788  1.00104.86    -0.572 OA
HETATM   31  O2  IDS D   5      90.119   8.366  36.647  1.00104.95    -0.233 OA
HETATM   32  O62 IDS D   5      87.215  11.362  41.013  1.00103.31    -0.646 OA
HETATM   33  O2S IDS D   5      91.929   7.311  35.509  1.00105.19    -0.572 OA
HETATM   34  C1  IDS D   5      88.641   7.737  38.431  1.00104.71     0.269 C 
HETATM   35  C4  IDS D   5      88.312  10.672  38.003  1.00102.91     0.189 C 
HETATM   36  O3  SGN D   6      89.053   6.736  41.181  1.00109.37    -0.218 OA
HETATM   37  O5S SGN D   6      82.288   5.636  37.383  1.00116.14    -0.572 OA
HETATM   38  C3  SGN D   6      87.700   6.332  41.163  1.00109.74     0.210 C 
HETATM   39  O2S SGN D   6      90.240   6.046  43.565  1.00110.26    -0.577 OA
HETATM   40  C4  SGN D   6      87.233   6.158  39.688  1.00109.06     0.180 C 
HETATM   41  C6  SGN D   6      85.101   5.414  38.345  1.00112.18     0.198 C 
HETATM   42  O3S SGN D   6      89.590   4.210  44.936  1.00110.26    -0.577 OA
HETATM   43  O1S SGN D   6      90.134   3.839  42.655  1.00109.86    -0.577 OA
HETATM   44  S2  SGN D   6      82.750   4.300  37.650  1.00116.12     0.252 S 
HETATM   45  O6  SGN D   6      84.045   4.480  38.514  1.00114.59    -0.235 OA
HETATM   46  C5  SGN D   6      85.736   5.691  39.725  1.00110.84     0.179 C 
HETATM   47  C1  SGN D   6      86.088   4.522  41.853  1.00110.08     0.295 C 
HETATM   48  S1  SGN D   6      89.601   4.763  43.613  1.00110.26     0.227 S 
HETATM   49  O5  SGN D   6      85.595   4.475  40.515  1.00110.24    -0.325 OA
HETATM   50  O4S SGN D   6      81.821   3.544  38.440  1.00116.15    -0.572 OA
HETATM   51  O6S SGN D   6      83.160   3.616  36.458  1.00115.93    -0.572 OA
HETATM   52  O1  SGN D   6      85.287   5.378  42.632  1.00109.84    -0.188 OA
HETATM   53  N   SGN D   6      88.018   5.035  43.267  1.00110.09    -0.162 NA
HETATM   54  C2  SGN D   6      87.570   4.972  41.869  1.00109.89     0.210 C 
HETATM   55  O3  IDS D   3      94.462  14.380  42.265  1.00 98.07    -0.218 OA
HETATM   56  O1S IDS D   3      90.867  17.000  44.266  1.00 97.23    -0.572 OA
HETATM   57  C1  IDS D   3      92.299  15.980  40.618  1.00 98.22     0.269 C 
HETATM   58  O5  IDS D   3      93.243  16.609  39.746  1.00 98.17    -0.318 OA
HETATM   59  C4  IDS D   3      95.177  16.415  41.211  1.00 98.64     0.189 C 
HETATM   60  O3S IDS D   3      90.214  18.120  42.259  1.00 97.17    -0.572 OA
HETATM   61  O1  IDS D   3      92.123  14.621  40.324  1.00 98.32    -0.326 OA
HETATM   62  O2  IDS D   3      92.500  17.415  42.539  1.00 98.06    -0.233 OA
HETATM   63  C6  IDS D   3      95.408  16.694  38.658  1.00 98.60     0.216 C 
HETATM   64  O62 IDS D   3      96.336  16.078  38.188  1.00 98.57    -0.646 OA
HETATM   65  C5  IDS D   3      94.594  16.115  39.813  1.00 98.32     0.234 C 
HETATM   66  C3  IDS D   3      94.273  15.782  42.299  1.00 98.22     0.216 C 
HETATM   67  O61 IDS D   3      95.153  17.781  38.187  1.00 98.95    -0.646 OA
HETATM   68  O2S IDS D   3      91.625  19.226  43.825  1.00 97.99    -0.572 OA
HETATM   69  C2  IDS D   3      92.765  16.093  42.091  1.00 98.16     0.226 C 
HETATM   70  S   IDS D   3      91.221  17.966  43.267  1.00 98.07     0.252 S 
HETATM   71  O6S SGN D   2     100.935  20.530  37.953  1.00103.84    -0.572 OA
HETATM   72  O3S SGN D   2      95.547  16.658  45.081  1.00102.25    -0.577 OA
HETATM   73  O5  SGN D   2      97.463  18.668  40.881  1.00101.25    -0.329 OA
HETATM   74  O3  SGN D   2      95.673  21.661  43.206  1.00100.80    -0.221 OA
HETATM   75  O6  SGN D   2      99.231  20.818  39.632  1.00103.52    -0.235 OA
HETATM   76  C4  SGN D   2      96.878  21.054  41.215  1.00101.13     0.068 C 
HETATM   77  C5  SGN D   2      97.065  19.887  40.196  1.00101.62     0.152 C 
HETATM   78  O2S SGN D   2      95.578  18.587  46.482  1.00102.85    -0.577 OA
HETATM   79  N   SGN D   2      95.494  18.871  44.036  1.00101.95    -0.162 NA
HETATM   80  S1  SGN D   2      96.084  17.974  45.286  1.00102.78     0.227 S 
HETATM   81  C6  SGN D   2      98.103  20.153  39.085  1.00102.41     0.195 C 
HETATM   82  O1  SGN D   2      95.362  17.810  41.423  1.00100.13    -0.326 OA
HETATM   83  O1S SGN D   2      97.515  17.971  45.223  1.00102.44    -0.577 OA
HETATM   84  C3  SGN D   2      95.846  20.614  42.272  1.00101.21     0.183 C 
HETATM   85  O5S SGN D   2     100.977  19.226  39.952  1.00103.69    -0.572 OA
HETATM   86  O4S SGN D   2     101.496  21.556  40.039  1.00103.84    -0.572 OA
HETATM   87  C2  SGN D   2      96.405  19.362  42.986  1.00101.28     0.205 C 
HETATM   88  S2  SGN D   2     100.753  20.524  39.378  1.00104.20     0.252 S 
HETATM   89  C1  SGN D   2      96.602  18.229  41.943  1.00100.81     0.262 C 
ENDROOT
TORSDOF 29
