REMARK  0 active torsions:
REMARK  status: ('A' for Active; 'I' for Inactive)
REMARK       I    between atoms: C4_1021  and  O4_1027 
REMARK       I    between atoms: C6_1023  and  C5_1022 
REMARK       I    between atoms: C6_1023  and  O6_1029 
REMARK       I    between atoms: O4_1027  and  C1_1002 
REMARK       I    between atoms: S2_1034  and  O6_1029 
REMARK       I    between atoms: S1_1030  and  N_1024 
REMARK       I    between atoms: C2_1019  and  N_1024 
REMARK       I    between atoms: C5_1006  and  C6_1007 
REMARK       I    between atoms: C4_1005  and  O4_1010 
REMARK       I    between atoms: O4_1010  and  C1_983 
REMARK       I    between atoms: C2_1003  and  O2_1008 
REMARK       I    between atoms: O2_1008  and  S_1014 
REMARK       I    between atoms: O4_975  and  C1_948 
REMARK       I    between atoms: S2_963  and  O6_958 
REMARK       I    between atoms: C5_952  and  C6_953 
REMARK       I    between atoms: O6_958  and  C6_953 
REMARK       I    between atoms: S1_959  and  N_954 
REMARK       I    between atoms: C1_933  and  O4_956 
REMARK       I    between atoms: O4_956  and  C4_951 
REMARK       I    between atoms: C2_949  and  N_954 
REMARK       I    between atoms: O4_975  and  C4_970 
REMARK       I    between atoms: C2_968  and  O2_973 
REMARK       I    between atoms: O4_991  and  C1_967 
REMARK       I    between atoms: C6_972  and  C5_971 
REMARK       I    between atoms: S_979  and  O2_973 
REMARK       I    between atoms: O4_991  and  C4_986 
REMARK       I    between atoms: O6_993  and  C6_988 
REMARK       I    between atoms: O6_993  and  S2_998 
REMARK       I    between atoms: C5_987  and  C6_988 
REMARK       I    between atoms: C2_984  and  N_989 
REMARK       I    between atoms: S1_994  and  N_989 
REMARK       I    between atoms: C5_937  and  C6_938 
REMARK       I    between atoms: C2_934  and  O2_939 
REMARK       I    between atoms: S_944  and  O2_939 
ROOT
HETATM    1  O6S SGN A  66      19.864  47.912  52.314  0.80 41.54    -0.572 OA
HETATM    2  C4  SGN A  66      21.080  43.285  52.390  0.80 36.10     0.180 C 
HETATM    3  C6  SGN A  66      22.714  45.188  52.676  0.80 38.26     0.198 C 
HETATM    4  O4  SGN A  66      21.285  43.331  50.900  0.80 31.65    -0.326 OA
HETATM    5  O5S SGN A  66      21.841  47.783  50.998  0.80 37.15    -0.572 OA
HETATM    6  O2S SGN A  66      19.991  40.844  57.423  0.80 36.23    -0.577 OA
HETATM    7  O5  SGN A  66      22.150  43.682  54.565  0.80 38.76    -0.325 OA
HETATM    8  O1  SGN A  66      22.809  41.372  54.711  0.80 37.17    -0.188 OA
HETATM    9  C5  SGN A  66      22.352  43.756  53.112  0.80 36.69     0.179 C 
HETATM   10  S2  SGN A  66      20.828  47.012  51.713  0.80 42.32     0.252 S 
HETATM   11  S1  SGN A  66      20.503  39.918  56.432  0.80 40.14     0.227 S 
HETATM   12  O1S SGN A  66      19.878  38.609  56.552  0.80 42.14    -0.577 OA
HETATM   13  C1  SGN A  66      21.807  42.346  55.063  0.80 36.50     0.295 C 
HETATM   14  O3S SGN A  66      21.938  39.731  56.583  0.80 39.16    -0.577 OA
HETATM   15  C3  SGN A  66      20.654  41.888  52.872  0.80 37.10     0.210 C 
HETATM   16  O3  SGN A  66      19.387  41.559  52.304  0.80 36.07    -0.218 OA
HETATM   17  C2  SGN A  66      20.485  41.919  54.393  0.80 38.34     0.210 C 
HETATM   18  O4S SGN A  66      20.133  46.101  50.814  0.80 36.35    -0.572 OA
HETATM   19  N   SGN A  66      20.072  40.579  54.833  0.80 38.90    -0.162 NA
HETATM   20  O6  SGN A  66      21.649  46.109  53.009  0.80 36.33    -0.235 OA
HETATM   21  O61 IDS A  65      20.949  38.539  49.864  0.80 37.98    -0.646 OA
HETATM   22  O3  IDS A  65      23.752  42.409  47.591  0.80 35.13    -0.218 OA
HETATM   23  C5  IDS A  65      21.118  40.921  49.767  0.80 37.90     0.234 C 
HETATM   24  C6  IDS A  65      20.293  39.610  49.860  0.80 39.46     0.216 C 
HETATM   25  O5  IDS A  65      20.180  42.038  49.685  0.80 33.13    -0.318 OA
HETATM   26  C1  IDS A  65      20.763  43.363  49.580  0.80 34.89     0.269 C 
HETATM   27  O1S IDS A  65      24.911  45.109  47.351  0.80 53.22    -0.572 OA
HETATM   28  C4  IDS A  65      22.160  40.946  48.594  0.80 35.76     0.189 C 
HETATM   29  O4  IDS A  65      21.905  39.697  47.946  0.80 34.43    -0.326 OA
HETATM   30  C2  IDS A  65      22.246  43.384  49.102  0.80 37.87     0.226 C 
HETATM   31  O62 IDS A  65      19.030  39.676  49.949  0.80 36.13    -0.646 OA
HETATM   32  C3  IDS A  65      22.431  42.359  48.029  0.80 36.50     0.216 C 
HETATM   33  O2S IDS A  65      24.898  44.187  49.550  0.80 52.27    -0.572 OA
HETATM   34  O3S IDS A  65      24.357  46.478  49.244  0.80 49.58    -0.572 OA
HETATM   35  O2  IDS A  65      22.560  44.638  48.516  0.80 45.51    -0.233 OA
HETATM   36  S   IDS A  65      24.265  45.142  48.662  0.80 52.01     0.252 S 
HETATM   37  O3S SGN A  62      15.548  36.417  42.233  0.80 20.31    -0.577 OA
HETATM   38  C1  SGN A  62      18.295  36.351  40.106  0.80 15.59     0.263 C 
HETATM   39  S2  SGN A  62      21.993  36.396  35.449  0.80 30.41     0.252 S 
HETATM   40  C5  SGN A  62      19.212  35.742  37.872  0.80 16.71     0.179 C 
HETATM   41  O5  SGN A  62      18.713  36.775  38.769  0.80 15.05    -0.327 OA
HETATM   42  O4S SGN A  62      21.706  37.249  34.344  0.80 32.30    -0.572 OA
HETATM   43  O6  SGN A  62      20.544  35.561  35.955  0.80 23.25    -0.235 OA
HETATM   44  O3  SGN A  62      16.984  33.020  39.045  0.80 15.00    -0.218 OA
HETATM   45  S1  SGN A  62      15.668  34.987  42.068  0.80 18.90     0.227 S 
HETATM   46  O6S SGN A  62      22.558  37.112  36.590  0.80 27.09    -0.572 OA
HETATM   47  O4  SGN A  62      18.668  33.670  36.792  0.80 18.63    -0.326 OA
HETATM   48  C6  SGN A  62      19.567  36.392  36.556  0.80 16.34     0.198 C 
HETATM   49  O5S SGN A  62      22.918  35.367  35.059  0.80 36.24    -0.572 OA
HETATM   50  O1S SGN A  62      15.656  34.294  43.339  0.80 21.21    -0.577 OA
HETATM   51  O2S SGN A  62      14.613  34.553  41.198  0.80 17.51    -0.577 OA
HETATM   52  C2  SGN A  62      17.348  35.167  39.969  0.80 17.99     0.207 C 
HETATM   53  C4  SGN A  62      18.144  34.651  37.684  0.80 17.17     0.180 C 
HETATM   54  N   SGN A  62      17.161  34.583  41.259  0.80 20.77    -0.162 NA
HETATM   55  C3  SGN A  62      17.926  34.058  39.085  0.80 17.95     0.210 C 
HETATM   56  O4  IDS A  63      19.376  35.951  40.958  0.80 14.62    -0.326 OA
HETATM   57  O62 IDS A  63      23.009  36.239  41.519  0.80 22.41    -0.646 OA
HETATM   58  C2  IDS A  63      18.929  35.182  43.935  0.80 16.12     0.226 C 
HETATM   59  O2S IDS A  63      18.447  32.223  44.744  0.80 23.97    -0.572 OA
HETATM   60  O61 IDS A  63      22.007  38.033  40.839  0.80 21.09    -0.646 OA
HETATM   61  C3  IDS A  63      18.509  36.498  43.267  0.80 12.52     0.216 C 
HETATM   62  C1  IDS A  63      20.392  35.288  44.446  0.80 21.30     0.269 C 
HETATM   63  O5  IDS A  63      21.249  35.500  43.295  0.80 17.46    -0.318 OA
HETATM   64  C4  IDS A  63      19.500  36.830  42.069  0.80 17.09     0.189 C 
HETATM   65  C6  IDS A  63      22.068  37.034  41.554  0.80 18.62     0.216 C 
HETATM   66  S   IDS A  63      19.218  32.512  43.542  0.80 14.69     0.252 S 
HETATM   67  O3  IDS A  63      18.622  37.472  44.281  0.80 14.89    -0.218 OA
HETATM   68  C5  IDS A  63      20.966  36.772  42.577  0.80 17.63     0.234 C 
HETATM   69  O2  IDS A  63      18.742  34.134  43.021  0.80 17.35    -0.233 OA
HETATM   70  O1S IDS A  63      18.878  31.632  42.439  0.80 15.93    -0.572 OA
HETATM   71  O3S IDS A  63      20.602  32.377  43.893  0.80 16.04    -0.572 OA
HETATM   72  O4  SGN A  64      20.396  36.404  45.389  0.80 27.78    -0.326 OA
HETATM   73  O6  SGN A  64      21.774  35.125  49.088  0.80 57.47    -0.235 OA
HETATM   74  C3  SGN A  64      22.006  38.237  45.569  0.80 34.65     0.210 C 
HETATM   75  S2  SGN A  64      23.316  34.444  48.506  0.80 60.71     0.252 S 
HETATM   76  C5  SGN A  64      21.265  36.941  47.568  0.80 38.70     0.179 C 
HETATM   77  O1S SGN A  64      26.141  39.970  44.965  0.80 44.83    -0.577 OA
HETATM   78  C2  SGN A  64      23.241  38.658  46.304  0.80 37.35     0.207 C 
HETATM   79  O4S SGN A  64      23.009  33.320  47.660  0.80 61.84    -0.572 OA
HETATM   80  O3S SGN A  64      24.474  39.236  43.445  0.80 51.48    -0.577 OA
HETATM   81  S1  SGN A  64      24.770  40.165  44.521  0.80 50.01     0.227 S 
HETATM   82  O6S SGN A  64      24.078  35.425  47.761  0.80 62.07    -0.572 OA
HETATM   83  O5S SGN A  64      24.085  34.017  49.644  0.80 62.10    -0.572 OA
HETATM   84  O3  SGN A  64      22.342  38.214  44.229  0.80 26.92    -0.218 OA
HETATM   85  C1  SGN A  64      22.930  38.717  47.777  0.80 37.15     0.263 C 
HETATM   86  O2S SGN A  64      24.564  41.510  44.059  0.80 51.59    -0.577 OA
HETATM   87  C4  SGN A  64      21.588  36.829  46.067  0.80 33.61     0.180 C 
HETATM   88  O5  SGN A  64      22.480  37.418  48.217  0.80 38.53    -0.327 OA
HETATM   89  C6  SGN A  64      20.851  35.591  48.114  0.80 46.27     0.198 C 
HETATM   90  N   SGN A  64      23.634  39.975  45.867  0.80 45.60    -0.162 NA
HETATM   91  C1  IDS A  61      17.786  33.335  35.701  0.80 22.39     0.273 C 
HETATM   92  O5  IDS A  61      16.598  32.689  36.228  0.80 27.16    -0.298 OA
HETATM   93  C5  IDS A  61      16.654  31.367  36.649  0.80 27.35     0.159 C 
HETATM   94  C6  IDS A  61      15.357  30.777  37.327  0.80 29.61     0.234 C 
HETATM   95  C2  IDS A  61      18.511  32.342  34.799  0.80 22.91     0.228 C 
HETATM   96  O1S IDS A  61      15.297  32.918  34.162  0.80 32.67    -0.572 OA
HETATM   97  O3S IDS A  61      16.785  34.338  32.905  0.80 29.12    -0.572 OA
HETATM   98  O3  IDS A  61      20.017  31.213  36.160  0.80 22.99    -0.216 OA
HETATM   99  C4  IDS A  61      17.726  30.567  36.390  0.80 20.49     0.039 C 
HETATM  100  C3  IDS A  61      18.825  31.013  35.486  0.80 21.73     0.210 C 
HETATM  101  O61 IDS A  61      15.329  29.595  37.672  0.80 30.78    -0.642 OA
HETATM  102  O62 IDS A  61      14.345  31.504  37.482  0.80 29.57    -0.642 OA
HETATM  103  O2S IDS A  61      15.716  32.410  31.974  0.80 29.69    -0.572 OA
HETATM  104  S   IDS A  61      16.304  32.984  33.136  0.80 29.34     0.252 S 
HETATM  105  O2  IDS A  61      17.698  32.004  33.662  0.80 28.79    -0.232 OA
ENDROOT
TORSDOF 34
