REMARK  0 active torsions:
REMARK  status: ('A' for Active; 'I' for Inactive)
REMARK       I    between atoms: O6_5278  and  C6_5272 
REMARK       I    between atoms: O6_5278  and  S2_5283 
REMARK       I    between atoms: C6_5272  and  C5_5271 
REMARK       I    between atoms: N_5273  and  C2_5268 
REMARK       I    between atoms: N_5273  and  S1_5279 
REMARK       I    between atoms: C1_5252  and  O4_5276 
REMARK       I    between atoms: O4_5276  and  C4_5270 
REMARK       I    between atoms: C6_5237  and  C5_5236 
REMARK       I    between atoms: C6_5237  and  O6_5243 
REMARK       I    between atoms: S1_5244  and  N_5238 
REMARK       I    between atoms: O6_5243  and  S2_5248 
REMARK       I    between atoms: N_5238  and  C2_5233 
REMARK       I    between atoms: O1_5239  and  C1_5232 
REMARK       I    between atoms: O1_5239  and  C4_5255 
REMARK       I    between atoms: O2_5258  and  C2_5253 
REMARK       I    between atoms: O2_5258  and  S_5263 
REMARK       I    between atoms: C5_5256  and  C6_5257 
ROOT
HETATM    1  O3  SGN 1 503      35.832  21.800 144.618  0.50 45.14    -0.218 OA
HETATM    2  O6  SGN 1 503      32.193  21.049 141.793  0.50 26.36    -0.235 OA
HETATM    3  C6  SGN 1 503      32.275  19.674 142.150  0.50 27.27     0.198 C 
HETATM    4  O1S SGN 1 503      39.018  21.871 141.175  0.50 69.85    -0.577 OA
HETATM    5  C5  SGN 1 503      33.683  19.450 142.669  0.50 28.78     0.179 C 
HETATM    6  O3S SGN 1 503      38.161  23.054 143.100  0.50 81.60    -0.577 OA
HETATM    7  C3  SGN 1 503      35.513  20.623 143.908  0.50 43.11     0.210 C 
HETATM    8  O4S SGN 1 503      29.763  22.075 141.914  0.50 42.28    -0.572 OA
HETATM    9  N   SGN 1 503      37.747  20.438 142.996  0.50 56.62    -0.162 NA
HETATM   10  O2S SGN 1 503      40.102  21.621 143.327  0.50 76.82    -0.577 OA
HETATM   11  O5  SGN 1 503      34.547  19.404 141.532  0.50 46.28    -0.325 OA
HETATM   12  O6S SGN 1 503      31.194  22.794 140.091  0.50 10.74    -0.572 OA
HETATM   13  O5S SGN 1 503      30.233  20.573 140.096  0.50 29.06    -0.572 OA
HETATM   14  C1  SGN 1 503      35.938  19.313 141.829  0.50 41.83     0.295 C 
HETATM   15  O1  SGN 1 503      36.215  18.120 142.556  0.50 43.93    -0.188 OA
HETATM   16  O4  SGN 1 503      33.279  20.595 144.741  0.50 44.91    -0.326 OA
HETATM   17  C2  SGN 1 503      36.347  20.530 142.644  0.50 38.84     0.210 C 
HETATM   18  S1  SGN 1 503      38.804  21.804 142.636  0.50 86.64     0.227 S 
HETATM   19  S2  SGN 1 503      30.784  21.652 140.933  0.50 30.41     0.252 S 
HETATM   20  C4  SGN 1 503      34.044  20.645 143.539  0.50 32.01     0.180 C 
HETATM   21  C4  SGN 1 501      28.992  27.765 147.588  0.50 71.31     0.214 C 
HETATM   22  C6  SGN 1 501      31.367  27.975 148.411  0.50 67.30     0.198 C 
HETATM   23  O6S SGN 1 501      33.040  29.279 151.017  0.50 99.46    -0.572 OA
HETATM   24  S1  SGN 1 501      25.458  24.320 147.087  0.50118.45     0.227 S 
HETATM   25  O6  SGN 1 501      31.823  27.367 149.618  0.50 91.43    -0.235 OA
HETATM   26  O5S SGN 1 501      30.644  29.075 151.281  0.50 98.33    -0.572 OA
HETATM   27  O3S SGN 1 501      25.011  25.320 148.083  0.50 97.68    -0.577 OA
HETATM   28  N   SGN 1 501      27.163  24.586 146.688  0.50 80.98    -0.162 NA
HETATM   29  O1  SGN 1 501      29.956  24.468 146.536  0.50 69.69    -0.326 OA
HETATM   30  C1  SGN 1 501      29.346  24.902 147.750  0.50 73.29     0.263 C 
HETATM   31  C5  SGN 1 501      30.345  27.078 147.721  0.50 69.39     0.182 C 
HETATM   32  C3  SGN 1 501      28.046  26.857 146.812  0.50 72.38     0.213 C 
HETATM   33  O4S SGN 1 501      32.114  27.424 152.263  0.50106.17    -0.572 OA
HETATM   34  O3  SGN 1 501      26.763  27.447 146.738  0.50 66.33    -0.218 OA
HETATM   35  S2  SGN 1 501      31.909  28.325 151.105  0.50115.86     0.252 S 
HETATM   36  C2  SGN 1 501      27.959  25.494 147.494  0.50 78.50     0.207 C 
HETATM   37  O2S SGN 1 501      24.638  24.451 145.860  0.50125.46    -0.577 OA
HETATM   38  O4  SGN 1 501      29.146  29.007 146.899  0.50 71.20    -0.218 OA
HETATM   39  O5  SGN 1 501      30.175  25.848 148.433  0.50 71.92    -0.327 OA
HETATM   40  O1S SGN 1 501      25.296  22.961 147.652  0.50112.03    -0.577 OA
HETATM   41  O2  IDS 1 502      30.547  19.970 144.959  0.50 61.11    -0.233 OA
HETATM   42  C3  IDS 1 502      30.099  22.175 145.793  0.50 53.88     0.216 C 
HETATM   43  O2S IDS 1 502      32.056  18.415 146.498  0.50 77.09    -0.572 OA
HETATM   44  O1S IDS 1 502      29.771  17.708 146.111  0.50 79.88    -0.572 OA
HETATM   45  O5  IDS 1 502      32.812  22.822 145.378  0.50 43.94    -0.318 OA
HETATM   46  S   IDS 1 502      30.963  18.340 145.500  0.50 91.61     0.252 S 
HETATM   47  C1  IDS 1 502      32.281  21.606 144.837  0.50 34.41     0.269 C 
HETATM   48  O61 IDS 1 502      33.187  25.550 147.106  0.50 68.30    -0.646 OA
HETATM   49  O62 IDS 1 502      32.052  25.435 145.232  0.50 83.58    -0.646 OA
HETATM   50  C5  IDS 1 502      32.210  23.443 146.531  0.50 53.30     0.234 C 
HETATM   51  O3  IDS 1 502      28.927  21.658 146.388  0.50 57.58    -0.218 OA
HETATM   52  C6  IDS 1 502      32.476  24.923 146.295  0.50 68.71     0.216 C 
HETATM   53  O3S IDS 1 502      31.415  17.536 144.344  0.50 78.74    -0.572 OA
HETATM   54  C4  IDS 1 502      30.688  23.251 146.683  0.50 48.59     0.189 C 
HETATM   55  C2  IDS 1 502      31.121  21.076 145.648  0.50 53.10     0.226 C 
ENDROOT
TORSDOF 17
