REMARK  0 active torsions:
REMARK  status: ('A' for Active; 'I' for Inactive)
REMARK       I    between atoms: C5_2126  and  C6_2127 
REMARK       I    between atoms: O4_2130  and  C4_2125 
REMARK       I    between atoms: O4_2130  and  C1_2141 
REMARK       I    between atoms: S2_2137  and  O6_2132 
REMARK       I    between atoms: C1_2122  and  O4_2114 
REMARK       I    between atoms: S1_2133  and  N_2128 
REMARK       I    between atoms: O6_2132  and  C6_2127 
REMARK       I    between atoms: C2_2123  and  N_2128 
REMARK       I    between atoms: N_2093  and  C2_2088 
REMARK       I    between atoms: N_2093  and  S1_2098 
REMARK       I    between atoms: C4_2090  and  O4_2095 
REMARK       I    between atoms: C6_2092  and  C5_2091 
REMARK       I    between atoms: C6_2092  and  O6_2097 
REMARK       I    between atoms: O6_2097  and  S2_2102 
REMARK       I    between atoms: O4_2079  and  C1_2087 
REMARK       I    between atoms: C1_2106  and  O4_2095 
REMARK       I    between atoms: S_2083  and  O2_2077 
REMARK       I    between atoms: C2_2072  and  O2_2077 
REMARK       I    between atoms: O4_2079  and  C4_2074 
REMARK       I    between atoms: C5_2075  and  C6_2076 
REMARK       I    between atoms: C1_2071  and  O4_2060 
REMARK       I    between atoms: S_2153  and  O2_2147 
REMARK       I    between atoms: C6_2146  and  C5_2145 
REMARK       I    between atoms: O2_2147  and  C2_2142 
REMARK       I    between atoms: O6_2062  and  C6_2056 
REMARK       I    between atoms: O6_2062  and  S2_2067 
REMARK       I    between atoms: C5_2055  and  C6_2056 
REMARK       I    between atoms: N_2057  and  C2_2052 
REMARK       I    between atoms: N_2057  and  S1_2063 
REMARK       I    between atoms: C4_2054  and  O4_2060 
REMARK       I    between atoms: S_2118  and  O2_2112 
REMARK       I    between atoms: O2_2112  and  C2_2107 
REMARK       I    between atoms: C5_2110  and  C6_2111 
REMARK       I    between atoms: O4_2114  and  C4_2109 
ROOT
HETATM    1  O5S SGN B 305     -14.312  53.176  13.490  1.00 53.36    -0.572 OA
HETATM    2  C5  SGN B 305     -17.689  56.188  14.173  1.00 36.33     0.179 C 
HETATM    3  O1S SGN B 305     -18.480  54.480  18.901  1.00 25.70    -0.577 OA
HETATM    4  O4  SGN B 305     -16.421  58.115  14.488  1.00 44.49    -0.326 OA
HETATM    5  C4  SGN B 305     -16.972  57.045  15.165  1.00 35.67     0.180 C 
HETATM    6  O5  SGN B 305     -18.158  55.052  14.809  1.00 34.03    -0.327 OA
HETATM    7  S2  SGN B 305     -14.791  54.264  12.670  1.00 51.74     0.252 S 
HETATM    8  O3  SGN B 305     -17.512  58.400  17.046  1.00 31.17    -0.218 OA
HETATM    9  C1  SGN B 305     -19.101  55.326  15.824  1.00 31.33     0.263 C 
HETATM   10  S1  SGN B 305     -19.511  55.449  19.073  1.00 25.40     0.227 S 
HETATM   11  C3  SGN B 305     -18.041  57.512  16.120  1.00 31.82     0.210 C 
HETATM   12  O6  SGN B 305     -15.769  55.066  13.539  1.00 47.05    -0.235 OA
HETATM   13  O2S SGN B 305     -19.314  56.216  20.232  1.00 26.73    -0.577 OA
HETATM   14  O4S SGN B 305     -13.769  55.218  12.318  1.00 50.82    -0.572 OA
HETATM   15  O3S SGN B 305     -20.791  54.856  18.979  1.00 27.50    -0.577 OA
HETATM   16  C2  SGN B 305     -18.489  56.277  16.828  1.00 31.49     0.207 C 
HETATM   17  N   SGN B 305     -19.427  56.541  17.879  1.00 29.50    -0.162 NA
HETATM   18  C6  SGN B 305     -16.862  55.732  13.025  1.00 41.34     0.198 C 
HETATM   19  O6S SGN B 305     -15.587  53.795  11.541  1.00 50.74    -0.572 OA
HETATM   20  N   SGN B 303     -25.418  54.745   8.661  1.00 25.88    -0.162 NA
HETATM   21  C4  SGN B 303     -24.935  55.898  12.250  1.00 21.93     0.180 C 
HETATM   22  C2  SGN B 303     -25.579  55.584   9.836  1.00 23.18     0.207 C 
HETATM   23  O5S SGN B 303     -25.607  60.334  13.381  1.00 23.47    -0.572 OA
HETATM   24  O2S SGN B 303     -24.939  56.125   6.682  1.00 28.33    -0.577 OA
HETATM   25  C6  SGN B 303     -26.793  56.839  13.703  1.00 21.52     0.198 C 
HETATM   26  O3S SGN B 303     -26.123  54.060   6.441  1.00 26.78    -0.577 OA
HETATM   27  C5  SGN B 303     -26.432  55.936  12.537  1.00 22.72     0.179 C 
HETATM   28  S1  SGN B 303     -25.956  55.261   7.204  1.00 26.56     0.227 S 
HETATM   29  O6S SGN B 303     -27.901  59.641  13.205  1.00 19.25    -0.572 OA
HETATM   30  O1S SGN B 303     -27.188  55.969   7.408  1.00 27.20    -0.577 OA
HETATM   31  O3  SGN B 303     -23.357  55.165  10.611  1.00 23.53    -0.218 OA
HETATM   32  O6  SGN B 303     -26.166  58.058  13.448  1.00 22.47    -0.235 OA
HETATM   33  S2  SGN B 303     -26.643  59.464  13.842  1.00 23.62     0.252 S 
HETATM   34  O5  SGN B 303     -27.155  56.416  11.410  1.00 23.34    -0.327 OA
HETATM   35  C1  SGN B 303     -27.032  55.610  10.259  1.00 23.19     0.263 C 
HETATM   36  O4S SGN B 303     -26.775  59.481  15.259  1.00 25.95    -0.572 OA
HETATM   37  C3  SGN B 303     -24.716  55.068  10.980  1.00 22.93     0.210 C 
HETATM   38  O4  SGN B 303     -24.301  55.264  13.326  1.00 21.44    -0.326 OA
HETATM   39  S   IDS B 302     -26.743  50.669   8.569  1.00 27.67     0.252 S 
HETATM   40  O2S IDS B 302     -25.380  51.074   8.630  1.00 29.94    -0.572 OA
HETATM   41  O62 IDS B 302     -29.767  55.722  12.756  1.00 33.42    -0.646 OA
HETATM   42  C2  IDS B 302     -28.860  51.716   9.644  1.00 27.96     0.226 C 
HETATM   43  O5  IDS B 302     -28.803  52.357  11.947  1.00 30.74    -0.318 OA
HETATM   44  O1S IDS B 302     -27.336  50.827   7.283  1.00 28.30    -0.572 OA
HETATM   45  O4  IDS B 302     -27.507  54.294  10.460  1.00 23.81    -0.326 OA
HETATM   46  O3S IDS B 302     -26.948  49.374   9.110  1.00 26.88    -0.572 OA
HETATM   47  C5  IDS B 302     -29.418  53.605  11.676  1.00 30.87     0.234 C 
HETATM   48  C1  IDS B 302     -29.181  51.323  11.055  1.00 32.00     0.269 C 
HETATM   49  C3  IDS B 302     -29.276  53.144   9.294  1.00 26.55     0.216 C 
HETATM   50  C4  IDS B 302     -28.906  54.140  10.376  1.00 26.51     0.189 C 
HETATM   51  O3  IDS B 302     -30.672  53.167   9.153  1.00 28.83    -0.218 OA
HETATM   52  O61 IDS B 302     -28.700  54.264  13.873  1.00 39.02    -0.646 OA
HETATM   53  C6  IDS B 302     -29.284  54.585  12.839  1.00 35.11     0.216 C 
HETATM   54  O2  IDS B 302     -27.506  51.637   9.476  1.00 27.49    -0.233 OA
HETATM   55  O5  IDS B 306     -14.167  58.277  15.012  1.00 52.06    -0.318 OA
HETATM   56  C4  IDS B 306     -14.098  60.625  14.435  1.00 53.35     0.223 C 
HETATM   57  C3  IDS B 306     -14.723  60.276  13.035  1.00 53.98     0.219 C 
HETATM   58  C1  IDS B 306     -15.107  57.912  14.029  1.00 50.70     0.269 C 
HETATM   59  S   IDS B 306     -13.371  58.808  10.703  1.00 65.97     0.252 S 
HETATM   60  O3S IDS B 306     -12.722  57.676  10.075  1.00 66.44    -0.572 OA
HETATM   61  C6  IDS B 306     -13.720  59.734  16.868  1.00 54.83     0.217 C 
HETATM   62  O61 IDS B 306     -13.559  58.768  17.608  1.00 55.12    -0.646 OA
HETATM   63  O2  IDS B 306     -13.771  58.332  12.117  1.00 61.11    -0.233 OA
HETATM   64  C2  IDS B 306     -14.906  58.758  12.791  1.00 54.95     0.226 C 
HETATM   65  O62 IDS B 306     -13.334  60.832  17.252  1.00 55.71    -0.646 OA
HETATM   66  O3  IDS B 306     -16.000  60.882  12.887  1.00 53.27    -0.218 OA
HETATM   67  O2S IDS B 306     -12.485  59.941  10.889  1.00 66.31    -0.572 OA
HETATM   68  O4  IDS B 306     -12.690  60.674  14.271  1.00 52.61    -0.217 OA
HETATM   69  C5  IDS B 306     -14.412  59.563  15.514  1.00 53.85     0.237 C 
HETATM   70  O1S IDS B 306     -14.637  59.182  10.094  1.00 65.64    -0.572 OA
HETATM   71  O2S SGN B 301     -32.484  51.801  17.640  1.00 66.20    -0.577 OA
HETATM   72  C3  SGN B 301     -31.882  51.094  13.181  1.00 58.83     0.210 C 
HETATM   73  O6S SGN B 301     -29.297  45.170  11.447  1.00 84.28    -0.572 OA
HETATM   74  O6  SGN B 301     -29.745  47.503  11.829  1.00 77.67    -0.235 OA
HETATM   75  C5  SGN B 301     -31.628  48.981  11.881  1.00 62.35     0.179 C 
HETATM   76  O5  SGN B 301     -32.094  48.252  13.019  1.00 62.92    -0.325 OA
HETATM   77  O5S SGN B 301     -27.527  46.620  12.235  1.00 84.95    -0.572 OA
HETATM   78  C6  SGN B 301     -30.811  47.992  11.052  1.00 69.19     0.198 C 
HETATM   79  O1S SGN B 301     -31.737  49.599  17.059  1.00 66.90    -0.577 OA
HETATM   80  O3  SGN B 301     -31.267  52.276  13.620  1.00 60.42    -0.218 OA
HETATM   81  O3S SGN B 301     -34.059  49.991  17.460  1.00 68.56    -0.577 OA
HETATM   82  C1  SGN B 301     -32.958  48.997  13.859  1.00 64.00     0.295 C 
HETATM   83  N   SGN B 301     -33.066  50.920  15.389  1.00 63.90    -0.162 NA
HETATM   84  O1  SGN B 301     -34.132  49.414  13.121  1.00 65.65    -0.188 OA
HETATM   85  O4S SGN B 301     -28.348  46.829   9.981  1.00 85.81    -0.572 OA
HETATM   86  C2  SGN B 301     -32.239  50.227  14.390  1.00 62.20     0.210 C 
HETATM   87  S1  SGN B 301     -32.819  50.559  16.988  1.00 66.39     0.227 S 
HETATM   88  C4  SGN B 301     -30.887  50.280  12.311  1.00 55.35     0.180 C 
HETATM   89  S2  SGN B 301     -28.662  46.467  11.349  1.00 83.86     0.252 S 
HETATM   90  O4  SGN B 301     -30.536  51.013  11.159  1.00 42.53    -0.326 OA
HETATM   91  S   IDS B 304     -23.945  57.059  17.308  1.00 21.74     0.252 S 
HETATM   92  O62 IDS B 304     -19.804  55.514  11.583  1.00 26.42    -0.646 OA
HETATM   93  O1S IDS B 304     -25.225  56.763  16.777  1.00 19.88    -0.572 OA
HETATM   94  O2  IDS B 304     -22.942  56.260  16.469  1.00 21.96    -0.233 OA
HETATM   95  O3  IDS B 304     -22.491  53.154  14.766  1.00 22.29    -0.218 OA
HETATM   96  C5  IDS B 304     -21.492  55.619  13.243  1.00 21.97     0.234 C 
HETATM   97  O5  IDS B 304     -22.414  56.595  13.577  1.00 22.93    -0.318 OA
HETATM   98  O3S IDS B 304     -23.566  58.397  17.109  1.00 24.90    -0.572 OA
HETATM   99  O4  IDS B 304     -20.271  55.869  15.293  1.00 26.96    -0.326 OA
HETATM  100  C3  IDS B 304     -22.063  54.358  15.360  1.00 22.78     0.216 C 
HETATM  101  C2  IDS B 304     -23.255  55.332  15.469  1.00 23.01     0.226 C 
HETATM  102  C1  IDS B 304     -23.591  56.093  14.186  1.00 22.63     0.269 C 
HETATM  103  O2S IDS B 304     -23.804  56.642  18.665  1.00 22.78    -0.572 OA
HETATM  104  O61 IDS B 304     -20.186  57.380  12.300  1.00 21.23    -0.646 OA
HETATM  105  C4  IDS B 304     -20.953  54.943  14.511  1.00 23.70     0.189 C 
HETATM  106  C6  IDS B 304     -20.438  56.205  12.318  1.00 22.22     0.216 C 
ENDROOT
TORSDOF 34
