REMARK  0 active torsions:
REMARK  status: ('A' for Active; 'I' for Inactive)
REMARK       I    between atoms: C3_2494  and  O3_2501 
REMARK       I    between atoms: C4_2495  and  O4_2502 
REMARK       I    between atoms: C2_2493  and  N2_2500 
REMARK       I    between atoms: C6_2497  and  C5_2496 
REMARK       I    between atoms: C6_2497  and  O6_2504 
REMARK       I    between atoms: N2_2500  and  C7_2498 
REMARK       I    between atoms: C7_2498  and  C8_2499 
REMARK       I    between atoms: O4_2481  and  C1_2492 
REMARK       I    between atoms: C1_2519  and  O3_2501 
REMARK       I    between atoms: O4_2527  and  C4_2522 
REMARK       I    between atoms: O4_2527  and  C1_2538 
REMARK       I    between atoms: O3_2526  and  C3_2521 
REMARK       I    between atoms: C2_2520  and  O2_2525 
REMARK       I    between atoms: C6_2524  and  C5_2523 
REMARK       I    between atoms: O1_2453  and  C1_2444 
REMARK       I    between atoms: O3_2454  and  C3_2446 
REMARK       I    between atoms: O3_2454  and  C1_2473 
REMARK       I    between atoms: O6_2457  and  C6_2449 
REMARK       I    between atoms: C7_2450  and  C8_2451 
REMARK       I    between atoms: C7_2450  and  N2_2452 
REMARK       I    between atoms: O4_2455  and  C4_2447 
REMARK       I    between atoms: N2_2452  and  C2_2445 
REMARK       I    between atoms: C6_2449  and  C5_2448 
REMARK       I    between atoms: C2_2590  and  N2_2592 
REMARK       I    between atoms: C8_2588  and  C7_2587 
REMARK       I    between atoms: O4_2594  and  C4_2584 
REMARK       I    between atoms: C3_2591  and  O3_2593 
REMARK       I    between atoms: C1_2589  and  O4_2573 
REMARK       I    between atoms: N2_2592  and  C7_2587 
REMARK       I    between atoms: C5_2585  and  C6_2586 
REMARK       I    between atoms: C4_2541  and  O4_2548 
REMARK       I    between atoms: N2_2546  and  C2_2539 
REMARK       I    between atoms: N2_2546  and  C7_2544 
REMARK       I    between atoms: C6_2543  and  C5_2542 
REMARK       I    between atoms: C6_2543  and  O6_2550 
REMARK       I    between atoms: C8_2545  and  C7_2544 
REMARK       I    between atoms: C3_2540  and  O3_2547 
REMARK       I    between atoms: C1_2565  and  O3_2547 
REMARK       I    between atoms: O2_2571  and  C2_2566 
REMARK       I    between atoms: O3_2572  and  C3_2567 
REMARK       I    between atoms: C5_2569  and  C6_2570 
REMARK       I    between atoms: C4_2568  and  O4_2573 
REMARK       I    between atoms: C3_2475  and  O3_2480 
REMARK       I    between atoms: O4_2481  and  C4_2476 
REMARK       I    between atoms: O2_2479  and  C2_2474 
REMARK       I    between atoms: C5_2477  and  C6_2478 
ROOT
HETATM    1  C3  NAG A1177      10.384 -12.253  10.952  1.00 14.66     0.093 C 
HETATM    2  O7  NAG A1177       7.700  -9.474  11.282  1.00 11.68    -0.274 OA
HETATM    3  H82 NAG A1177       5.243 -11.105  10.751  1.00 10.52     0.040 H 
HETATM    4  H1  NAG A1177       8.740 -13.896  12.428  1.00 13.21     0.132 H 
HETATM    5  C4  NAG A1177      11.615 -12.619  11.800  1.00 14.83     0.089 C 
HETATM    6  C2  NAG A1177       9.213 -11.887  11.849  1.00 12.17     0.087 C 
HETATM    7  H62 NAG A1177      12.134 -14.689  14.548  1.00 18.52     0.078 H 
HETATM    8  C6  NAG A1177      12.433 -13.918  13.838  1.00 18.13     0.043 C 
HETATM    9  C5  NAG A1177      11.262 -13.623  12.886  1.00 14.27     0.089 C 
HETATM   10  HO6 NAG A1177      12.258 -12.107  14.248  0.00 19.94     0.209 HD
HETATM   11  N2  NAG A1177       7.954 -11.763  11.092  1.00 12.56    -0.349 N 
HETATM   12  H2  NAG A1177       9.424 -10.949  12.357  1.00 12.00     0.084 H 
HETATM   13  O4  NAG A1177      12.642 -13.148  10.984  1.00 19.31    -0.390 OA
HETATM   14  C7  NAG A1177       7.319 -10.612  10.858  1.00 10.34     0.214 C 
HETATM   15  H61 NAG A1177      13.280 -14.301  13.269  1.00 17.50     0.078 H 
HETATM   16  H4  NAG A1177      11.973 -11.709  12.282  1.00 15.42     0.091 H 
HETATM   17  H3  NAG A1177      10.088 -13.097  10.329  1.00 14.55     0.091 H 
HETATM   18  O5  NAG A1177      10.174 -13.136  13.662  1.00 14.08    -0.349 OA
HETATM   19  C8  NAG A1177       6.046 -10.812  10.077  1.00 10.10    -0.003 C 
HETATM   20  HO4 NAG A1177      12.245 -13.205  10.030  0.00 17.84     0.210 HD
HETATM   21  H5  NAG A1177      10.976 -14.558  12.405  1.00 15.25     0.090 H 
HETATM   22  C1  NAG A1177       8.992 -12.956  12.918  1.00 13.58     0.154 C 
HETATM   23  HN2 NAG A1177       7.399 -12.601  11.034  1.00 11.60     0.163 HD
HETATM   24  H83 NAG A1177       6.193 -11.584   9.323  1.00  9.52     0.040 H 
HETATM   25  O6  NAG A1177      12.818 -12.753  14.546  1.00 23.54    -0.398 OA
HETATM   26  H81 NAG A1177       5.778  -9.883   9.575  1.00 10.38     0.040 H 
HETATM   27  O3  NAG A1177      10.670 -11.123  10.174  1.00 15.44    -0.348 OA
HETATM   28  O6A BDP A1178      13.321 -13.452   6.940  1.00 20.31    -0.646 OA
HETATM   29  H3  BDP A1178       9.192 -10.392   6.515  1.00 15.39     0.091 H 
HETATM   30  O4  BDP A1178      10.552 -11.537   4.748  1.00 17.13    -0.348 OA
HETATM   31  O3  BDP A1178      10.590  -8.966   5.968  1.00 16.13    -0.390 OA
HETATM   32  H1  BDP A1178       9.409 -11.706   8.630  1.00 16.42     0.133 H 
HETATM   33  C1  BDP A1178      10.425 -11.339   8.777  1.00 16.56     0.160 C 
HETATM   34  C4  BDP A1178      11.112 -11.288   6.016  1.00 16.41     0.103 C 
HETATM   35  HC  BDP A1178      10.933  -8.305   6.570  0.00 16.53     0.210 HD
HETATM   36  HB  BDP A1178       9.152  -9.513   9.352  0.00 17.99     0.210 HD
HETATM   37  C2  BDP A1178      10.580  -9.999   8.089  1.00 16.80     0.110 C 
HETATM   38  O2  BDP A1178       9.704  -9.055   8.649  1.00 18.40    -0.388 OA
HETATM   39  O6B BDP A1178      11.912 -14.343   5.456  1.00 20.84    -0.646 OA
HETATM   40  H4  BDP A1178      12.137 -10.930   5.920  1.00 16.39     0.092 H 
HETATM   41  O5  BDP A1178      11.351 -12.249   8.212  1.00 17.56    -0.340 OA
HETATM   42  C6  BDP A1178      12.192 -13.527   6.378  1.00 19.72     0.206 C 
HETATM   43  C5  BDP A1178      11.104 -12.556   6.855  1.00 17.58     0.152 C 
HETATM   44  C3  BDP A1178      10.250 -10.169   6.633  1.00 14.67     0.092 C 
HETATM   45  H5  BDP A1178      10.133 -13.041   6.767  1.00 17.52     0.104 H 
HETATM   46  H2  BDP A1178      11.611  -9.663   8.200  1.00 16.81     0.094 H 
HETATM   47  O1  NAG A1175       1.526 -16.597  20.656  1.00 23.48    -0.369 OA
HETATM   48  HN2 NAG A1175       3.493 -14.993  20.912  1.00 21.86     0.163 HD
HETATM   49  O3  NAG A1175       4.706 -15.282  17.480  1.00 19.56    -0.348 OA
HETATM   50  O6  NAG A1175      -1.269 -16.251  16.511  1.00 21.86    -0.398 OA
HETATM   51  C7  NAG A1175       5.232 -15.904  20.454  1.00 23.06     0.214 C 
HETATM   52  O4  NAG A1175       2.467 -14.929  15.523  1.00 18.37    -0.390 OA
HETATM   53  H61 NAG A1175       0.303 -17.550  16.185  1.00 21.21     0.078 H 
HETATM   54  HO1 NAG A1175       2.288 -16.917  21.011  0.00 23.09     0.212 HD
HETATM   55  H62 NAG A1175       0.285 -16.089  15.201  1.00 21.22     0.078 H 
HETATM   56  N2  NAG A1175       3.967 -15.540  20.209  1.00 21.62    -0.349 N 
HETATM   57  C6  NAG A1175       0.077 -16.484  16.195  1.00 21.45     0.043 C 
HETATM   58  H5  NAG A1175       0.564 -14.783  17.380  1.00 20.08     0.090 H 
HETATM   59  HO4 NAG A1175       3.094 -14.171  15.694  0.00 20.13     0.210 HD
HETATM   60  H2  NAG A1175       3.371 -17.021  18.828  1.00 21.07     0.084 H 
HETATM   61  C2  NAG A1175       3.151 -15.982  19.067  1.00 21.03     0.087 C 
HETATM   62  C8  NAG A1175       5.763 -17.146  19.814  1.00 21.29    -0.003 C 
HETATM   63  O7  NAG A1175       5.969 -15.238  21.198  1.00 27.13    -0.274 OA
HETATM   64  C3  NAG A1175       3.340 -15.138  17.816  1.00 18.88     0.093 C 
HETATM   65  H83 NAG A1175       5.039 -17.957  19.891  1.00 21.81     0.040 H 
HETATM   66  C4  NAG A1175       2.397 -15.683  16.734  1.00 19.63     0.089 C 
HETATM   67  H3  NAG A1175       3.124 -14.101  18.073  1.00 19.18     0.091 H 
HETATM   68  H4  NAG A1175       2.650 -16.726  16.557  1.00 19.27     0.091 H 
HETATM   69  C1  NAG A1175       1.681 -15.899  19.453  1.00 20.95     0.151 C 
HETATM   70  H1  NAG A1175       1.394 -14.857  19.594  1.00 21.31     0.132 H 
HETATM   71  HO6 NAG A1175      -1.354 -15.694  17.254  0.00 22.38     0.209 HD
HETATM   72  H82 NAG A1175       6.014 -16.957  18.773  1.00 21.76     0.040 H 
HETATM   73  C5  NAG A1175       0.950 -15.791  17.230  1.00 20.15     0.089 C 
HETATM   74  H81 NAG A1175       6.653 -17.478  20.348  1.00 21.50     0.040 H 
HETATM   75  O5  NAG A1175       0.867 -16.497  18.454  1.00 20.64    -0.349 OA
HETATM   76  C2  NAG A1181      12.805 -18.311  -5.042  1.00 39.82     0.087 C 
HETATM   77  C8  NAG A1181      14.638 -20.259  -3.821  1.00 42.54    -0.003 C 
HETATM   78  O5  NAG A1181      10.586 -17.273  -4.988  1.00 40.59    -0.349 OA
HETATM   79  H82 NAG A1181      15.540 -20.792  -3.529  1.00 42.40     0.040 H 
HETATM   80  O4  NAG A1181      10.864 -19.374  -7.995  1.00 41.86    -0.390 OA
HETATM   81  HO3 NAG A1181      13.780 -20.160  -6.231  0.00 43.20     0.210 HD
HETATM   82  C3  NAG A1181      12.606 -18.629  -6.515  1.00 40.67     0.086 C 
HETATM   83  C1  NAG A1181      11.945 -17.124  -4.603  1.00 39.22     0.154 C 
HETATM   84  N2  NAG A1181      14.203 -18.042  -4.752  1.00 40.63    -0.349 N 
HETATM   85  C4  NAG A1181      11.117 -18.904  -6.689  1.00 41.58     0.089 C 
HETATM   86  O6  NAG A1181       8.101 -18.001  -5.605  1.00 44.21    -0.238 OA
HETATM   87  H2  NAG A1181      12.471 -19.181  -4.479  1.00 40.03     0.084 H 
HETATM   88  H83 NAG A1181      14.307 -20.634  -4.788  1.00 42.45     0.040 H 
HETATM   89  O3  NAG A1181      13.409 -19.721  -6.932  1.00 40.40    -0.391 OA
HETATM   90  C5  NAG A1181      10.382 -17.592  -6.362  1.00 42.01     0.092 C 
HETATM   91  H81 NAG A1181      13.862 -20.433  -3.076  1.00 42.43     0.040 H 
HETATM   92  O7  NAG A1181      15.825 -18.310  -3.210  1.00 41.98    -0.274 OA
HETATM   93  HO4 NAG A1181      11.636 -19.129  -8.686  0.00 43.58     0.210 HD
HETATM   94  H4  NAG A1181      10.815 -19.666  -5.970  1.00 41.63     0.091 H 
HETATM   95  HN2 NAG A1181      14.632 -17.202  -5.184  1.00 40.91     0.163 HD
HETATM   96  C7  NAG A1181      14.930 -18.787  -3.905  1.00 41.84     0.214 C 
HETATM   97  H5  NAG A1181      10.852 -16.780  -6.918  1.00 42.17     0.091 H 
HETATM   98  C6  NAG A1181       8.886 -17.596  -6.708  1.00 42.72     0.079 C 
HETATM   99  H1  NAG A1181      12.352 -16.211  -5.038  1.00 39.25     0.132 H 
HETATM  100  H61 NAG A1181       8.690 -18.274  -7.538  1.00 42.60     0.083 H 
HETATM  101  H62 NAG A1181       8.585 -16.595  -7.017  1.00 42.86     0.083 H 
HETATM  102  H3  NAG A1181      12.887 -17.748  -7.092  1.00 40.67     0.090 H 
HETATM  103  C4  NAG A1179      11.814 -11.211   0.792  1.00 23.84     0.089 C 
HETATM  104  N2  NAG A1179      10.349 -13.772   3.213  1.00 23.19    -0.349 N 
HETATM  105  H5  NAG A1179      13.432 -10.967   2.159  1.00 23.38     0.090 H 
HETATM  106  C6  NAG A1179      12.829  -9.017   1.545  1.00 23.50     0.043 C 
HETATM  107  H82 NAG A1179       7.881 -15.839   3.908  1.00 23.52     0.040 H 
HETATM  108  O4  NAG A1179      12.704 -11.344  -0.312  1.00 24.30    -0.390 OA
HETATM  109  H3  NAG A1179      12.308 -13.180   1.430  1.00 24.82     0.091 H 
HETATM  110  H62 NAG A1179      13.428  -8.583   2.339  1.00 23.72     0.078 H 
HETATM  111  O6  NAG A1179      11.637  -8.270   1.409  1.00 25.92    -0.398 OA
HETATM  112  HO4 NAG A1179      12.865 -12.250  -0.524  0.00 25.53     0.210 HD
HETATM  113  C1  NAG A1179      11.433 -11.643   3.626  1.00 19.76     0.154 C 
HETATM  114  H61 NAG A1179      13.426  -9.002   0.633  1.00 23.33     0.078 H 
HETATM  115  C5  NAG A1179      12.503 -10.452   1.923  1.00 23.07     0.089 C 
HETATM  116  H81 NAG A1179       9.531 -16.364   3.494  1.00 23.43     0.040 H 
HETATM  117  O5  NAG A1179      11.653 -10.389   3.054  1.00 20.34    -0.349 OA
HETATM  118  C2  NAG A1179      10.655 -12.483   2.619  1.00 22.02     0.087 C 
HETATM  119  C8  NAG A1179       8.935 -15.560   3.927  1.00 23.67    -0.003 C 
HETATM  120  HO6 NAG A1179      10.884  -8.759   1.656  0.00 25.27     0.209 HD
HETATM  121  C7  NAG A1179       9.134 -14.312   3.135  1.00 23.18     0.214 C 
HETATM  122  H83 NAG A1179       9.251 -15.393   4.956  1.00 23.66     0.040 H 
HETATM  123  HN2 NAG A1179      11.127 -14.411   3.275  1.00 22.98     0.163 HD
HETATM  124  H4  NAG A1179      10.917 -10.681   0.472  1.00 24.23     0.091 H 
HETATM  125  H2  NAG A1179       9.732 -11.953   2.386  1.00 21.92     0.084 H 
HETATM  126  C3  NAG A1179      11.401 -12.594   1.279  1.00 24.36     0.093 C 
HETATM  127  O3  NAG A1179      10.557 -13.185   0.302  1.00 27.94    -0.348 OA
HETATM  128  H1  NAG A1179      12.371 -12.126   3.898  1.00 19.79     0.132 H 
HETATM  129  O7  NAG A1179       8.223 -13.848   2.457  1.00 24.15    -0.274 OA
HETATM  130  H2  BDP A1180       9.347 -14.472  -1.453  1.00 33.97     0.094 H 
HETATM  131  O5  BDP A1180      12.095 -14.103  -1.150  1.00 33.03    -0.340 OA
HETATM  132  O6A BDP A1180      14.910 -15.397  -2.423  1.00 35.63    -0.646 OA
HETATM  133  O2  BDP A1180       9.118 -15.697   0.175  1.00 35.27    -0.388 OA
HETATM  134  H1  BDP A1180      11.507 -15.014   0.591  1.00 31.99     0.133 H 
HETATM  135  O3  BDP A1180       9.309 -16.722  -2.576  1.00 35.24    -0.390 OA
HETATM  136  H5  BDP A1180      12.987 -15.936  -1.011  1.00 34.79     0.104 H 
HETATM  137  C5  BDP A1180      12.638 -15.244  -1.777  1.00 34.79     0.152 C 
HETATM  138  C2  BDP A1180       9.929 -15.174  -0.855  1.00 33.51     0.110 C 
HETATM  139  H4  BDP A1180      11.210 -15.234  -3.368  1.00 35.43     0.092 H 
HETATM  140  C3  BDP A1180      10.382 -16.335  -1.736  1.00 34.82     0.092 C 
HETATM  141  C6  BDP A1180      13.828 -14.802  -2.615  1.00 35.39     0.206 C 
HETATM  142  C1  BDP A1180      11.090 -14.412  -0.216  1.00 31.97     0.160 C 
HETATM  143  HB  BDP A1180       9.541 -15.364   1.036  0.00 35.54     0.210 HD
HETATM  144  HC  BDP A1180       8.561 -16.222  -2.347  0.00 36.53     0.210 HD
HETATM  145  C4  BDP A1180      11.561 -15.929  -2.604  1.00 35.17     0.103 C 
HETATM  146  H3  BDP A1180      10.667 -17.169  -1.094  1.00 34.93     0.091 H 
HETATM  147  O6B BDP A1180      13.655 -13.857  -3.428  1.00 36.76    -0.646 OA
HETATM  148  O4  BDP A1180      12.095 -17.093  -3.174  1.00 36.35    -0.348 OA
HETATM  149  C3  BDP A1176       7.628 -13.300  16.107  1.00 17.62     0.092 C 
HETATM  150  H2  BDP A1176       7.167 -15.256  16.878  1.00 18.76     0.094 H 
HETATM  151  O4  BDP A1176       7.901 -12.567  13.765  1.00 13.68    -0.348 OA
HETATM  152  H1  BDP A1176       4.902 -13.247  17.038  1.00 18.05     0.133 H 
HETATM  153  O3  BDP A1176       9.012 -13.490  16.376  1.00 18.59    -0.390 OA
HETATM  154  O5  BDP A1176       5.100 -14.402  15.349  1.00 17.16    -0.340 OA
HETATM  155  HB  BDP A1176       6.144 -13.679  18.812  0.00 18.97     0.210 HD
HETATM  156  H5  BDP A1176       5.414 -12.471  14.677  1.00 15.52     0.104 H 
HETATM  157  H4  BDP A1176       7.635 -14.523  14.351  1.00 15.66     0.092 H 
HETATM  158  O2  BDP A1176       7.014 -13.855  18.368  1.00 21.01    -0.388 OA
HETATM  159  C1  BDP A1176       5.315 -14.207  16.731  1.00 18.20     0.160 C 
HETATM  160  O6B BDP A1176       4.762 -13.054  12.384  1.00 15.71    -0.646 OA
HETATM  161  H3  BDP A1176       7.358 -12.285  16.370  1.00 17.48     0.091 H 
HETATM  162  C5  BDP A1176       5.772 -13.482  14.483  1.00 15.86     0.152 C 
HETATM  163  O6A BDP A1176       5.577 -15.096  12.735  1.00 15.20    -0.646 OA
HETATM  164  C6  BDP A1176       5.352 -13.910  13.096  1.00 14.73     0.206 C 
HETATM  165  C4  BDP A1176       7.296 -13.523  14.622  1.00 15.67     0.103 C 
HETATM  166  HC  BDP A1176       9.118 -14.232  17.068  0.00 17.73     0.210 HD
HETATM  167  C2  BDP A1176       6.818 -14.233  17.016  1.00 18.52     0.110 C 
ENDROOT
TORSDOF 42
