REMARK  0 active torsions:
REMARK  status: ('A' for Active; 'I' for Inactive)
REMARK       I    between atoms: C1_1271  and  O3_1266 
REMARK       I    between atoms: O4_1279  and  C4_1274 
REMARK       I    between atoms: O4_1279  and  C1_1283 
REMARK       I    between atoms: C6_1276  and  C5_1275 
REMARK       I    between atoms: C1_1297  and  O3_1292 
REMARK       I    between atoms: C6_1302  and  C5_1301 
REMARK       I    between atoms: C1_1309  and  O4_1305 
REMARK       I    between atoms: O4_1305  and  C4_1300 
REMARK       I    between atoms: C6_1288  and  C5_1287 
REMARK       I    between atoms: C2_1284  and  N2_1291 
REMARK       I    between atoms: C3_1285  and  O3_1292 
REMARK       I    between atoms: C7_1289  and  N2_1291 
REMARK       I    between atoms: C6_1261  and  C5_1260 
REMARK       I    between atoms: O3_1266  and  C3_1258 
REMARK       I    between atoms: C2_1257  and  N2_1264 
REMARK       I    between atoms: C7_1262  and  N2_1264 
REMARK       I    between atoms: C6_1340  and  C5_1339 
REMARK       I    between atoms: C7_1341  and  N2_1343 
REMARK       I    between atoms: N2_1343  and  C2_1336 
REMARK       I    between atoms: C1_1335  and  O4_1331 
REMARK       I    between atoms: C7_1315  and  N2_1317 
REMARK       I    between atoms: C2_1310  and  N2_1317 
REMARK       I    between atoms: C1_1323  and  O3_1318 
REMARK       I    between atoms: O3_1318  and  C3_1311 
REMARK       I    between atoms: C5_1313  and  C6_1314 
REMARK       I    between atoms: C6_1328  and  C5_1327 
REMARK       I    between atoms: O4_1331  and  C4_1326 
ROOT
HETATM    1  C1  BDP A1176       4.958 -14.208  16.735  1.00 26.70     0.270 C 
HETATM    2  O3  BDP A1176       8.670 -13.862  16.210  1.00 25.05    -0.218 OA
HETATM    3  O5  BDP A1176       4.818 -14.577  15.392  1.00 24.12    -0.318 OA
HETATM    4  O6A BDP A1176       5.098 -15.227  12.776  1.00 20.44    -0.646 OA
HETATM    5  C3  BDP A1176       7.328 -13.452  16.044  1.00 24.29     0.217 C 
HETATM    6  O4  BDP A1176       7.454 -12.686  13.786  1.00 22.00    -0.326 OA
HETATM    7  C4  BDP A1176       6.904 -13.701  14.604  1.00 22.87     0.189 C 
HETATM    8  C6  BDP A1176       4.901 -14.045  13.119  1.00 20.77     0.216 C 
HETATM    9  C2  BDP A1176       6.446 -14.119  17.097  1.00 25.43     0.241 C 
HETATM   10  O6B BDP A1176       4.343 -13.165  12.431  1.00 19.38    -0.646 OA
HETATM   11  O2  BDP A1176       6.579 -13.340  18.261  1.00 26.63    -0.215 OA
HETATM   12  C5  BDP A1176       5.385 -13.661  14.501  1.00 22.25     0.234 C 
HETATM   13  C1  BDP A1178      10.241 -11.783   8.779  1.00 21.36     0.270 C 
HETATM   14  C6  BDP A1178      12.117 -13.987   6.430  1.00 26.10     0.216 C 
HETATM   15  O6B BDP A1178      11.759 -14.824   5.567  1.00 27.81    -0.646 OA
HETATM   16  O6A BDP A1178      13.288 -13.880   6.871  1.00 26.85    -0.646 OA
HETATM   17  O3  BDP A1178      10.281  -9.530   5.809  1.00 22.52    -0.218 OA
HETATM   18  O2  BDP A1178       9.522  -9.498   8.508  1.00 21.91    -0.215 OA
HETATM   19  C5  BDP A1178      11.031 -13.035   6.935  1.00 24.12     0.234 C 
HETATM   20  C3  BDP A1178      10.101 -10.712   6.556  1.00 22.28     0.217 C 
HETATM   21  C2  BDP A1178      10.404 -10.474   8.014  1.00 21.50     0.241 C 
HETATM   22  O4  BDP A1178      10.438 -12.211   4.804  1.00 27.38    -0.326 OA
HETATM   23  O5  BDP A1178      11.197 -12.708   8.310  1.00 22.54    -0.318 OA
HETATM   24  C4  BDP A1178      11.000 -11.814   6.022  1.00 23.78     0.189 C 
HETATM   25  C6  NAG A1177      11.914 -14.345  13.860  1.00 22.86     0.214 C 
HETATM   26  O4  NAG A1177      12.195 -13.404  11.039  1.00 22.98    -0.218 OA
HETATM   27  C2  NAG A1177       8.794 -12.115  11.871  1.00 20.55     0.192 C 
HETATM   28  C3  NAG A1177       9.988 -12.536  11.025  1.00 21.24     0.178 C 
HETATM   29  C7  NAG A1177       6.883 -10.867  10.942  1.00 20.34     0.252 C 
HETATM   30  N2  NAG A1177       7.644 -11.957  10.992  1.00 20.56    -0.232 NA
HETATM   31  C8  NAG A1177       5.559 -11.053  10.264  1.00 19.33     0.100 C 
HETATM   32  O7  NAG A1177       7.209  -9.763  11.390  1.00 20.53    -0.271 OA
HETATM   33  O6  NAG A1177      11.755 -13.741  15.131  1.00 25.13    -0.218 OA
HETATM   34  C4  NAG A1177      11.181 -12.909  11.892  1.00 21.83     0.211 C 
HETATM   35  O5  NAG A1177       9.695 -13.443  13.708  1.00 21.58    -0.327 OA
HETATM   36  C5  NAG A1177      10.765 -13.946  12.935  1.00 21.69     0.184 C 
HETATM   37  C1  NAG A1177       8.526 -13.158  12.957  1.00 21.39     0.262 C 
HETATM   38  O3  NAG A1177      10.371 -11.477  10.178  1.00 21.50    -0.327 OA
HETATM   39  C6  NAG A1175      -0.299 -16.636  16.543  1.00 37.88     0.214 C 
HETATM   40  O3  NAG A1175       4.288 -15.199  17.546  1.00 30.95    -0.327 OA
HETATM   41  C2  NAG A1175       2.668 -15.238  19.310  1.00 38.48     0.195 C 
HETATM   42  O6  NAG A1175      -1.646 -16.533  16.944  1.00 38.06    -0.218 OA
HETATM   43  O1  NAG A1175       0.972 -15.675  20.986  1.00 39.76    -0.188 OA
HETATM   44  C7  NAG A1175       4.038 -14.693  21.260  1.00 41.70     0.252 C 
HETATM   45  N2  NAG A1175       3.381 -14.297  20.168  1.00 40.33    -0.232 NA
HETATM   46  C5  NAG A1175       0.530 -15.710  17.425  1.00 37.69     0.184 C 
HETATM   47  O5  NAG A1175       0.527 -16.183  18.764  1.00 38.47    -0.325 OA
HETATM   48  C4  NAG A1175       1.950 -15.587  16.868  1.00 36.61     0.211 C 
HETATM   49  O4  NAG A1175       1.859 -14.890  15.639  1.00 36.48    -0.218 OA
HETATM   50  O7  NAG A1175       4.919 -15.561  21.237  1.00 42.48    -0.271 OA
HETATM   51  C1  NAG A1175       1.171 -15.276  19.644  1.00 38.93     0.294 C 
HETATM   52  C8  NAG A1175       3.655 -14.006  22.542  1.00 41.75     0.100 C 
HETATM   53  C3  NAG A1175       2.925 -14.888  17.834  1.00 35.65     0.178 C 
HETATM   54  C4  NAG A1181      11.020 -19.333  -6.917  1.00 43.93     0.214 C 
HETATM   55  C3  NAG A1181      12.489 -18.923  -6.774  1.00 43.62     0.212 C 
HETATM   56  C6  NAG A1181       8.647 -18.951  -6.125  1.00 45.03     0.214 C 
HETATM   57  C5  NAG A1181      10.071 -18.391  -6.162  1.00 44.63     0.184 C 
HETATM   58  C7  NAG A1181      15.146 -18.667  -4.610  1.00 42.52     0.252 C 
HETATM   59  C8  NAG A1181      15.019 -18.924  -3.133  1.00 41.82     0.100 C 
HETATM   60  N2  NAG A1181      14.147 -18.008  -5.197  1.00 42.68    -0.232 NA
HETATM   61  O3  NAG A1181      13.340 -19.961  -7.238  1.00 43.32    -0.218 OA
HETATM   62  C1  NAG A1181      11.787 -17.632  -4.717  1.00 43.44     0.262 C 
HETATM   63  O6  NAG A1181       7.727 -17.917  -5.842  1.00 45.56    -0.218 OA
HETATM   64  O5  NAG A1181      10.500 -18.191  -4.826  1.00 44.18    -0.327 OA
HETATM   65  O7  NAG A1181      16.133 -19.057  -5.239  1.00 43.00    -0.271 OA
HETATM   66  O4  NAG A1181      10.675 -19.354  -8.284  1.00 43.62    -0.218 OA
HETATM   67  C2  NAG A1181      12.817 -18.587  -5.317  1.00 43.24     0.195 C 
HETATM   68  C7  NAG A1179       9.268 -14.957   3.376  1.00 32.49     0.252 C 
HETATM   69  C1  NAG A1179      11.353 -12.243   3.696  1.00 30.93     0.262 C 
HETATM   70  C2  NAG A1179      10.668 -13.119   2.655  1.00 32.56     0.192 C 
HETATM   71  O5  NAG A1179      11.602 -10.962   3.158  1.00 32.56    -0.327 OA
HETATM   72  O7  NAG A1179       8.292 -14.642   2.698  1.00 33.16    -0.271 OA
HETATM   73  O4  NAG A1179      12.495 -11.728  -0.300  1.00 34.24    -0.218 OA
HETATM   74  N2  NAG A1179      10.489 -14.471   3.160  1.00 32.34    -0.232 NA
HETATM   75  C8  NAG A1179       9.102 -15.931   4.502  1.00 32.83     0.100 C 
HETATM   76  O3  NAG A1179      10.476 -13.689   0.346  1.00 38.56    -0.327 OA
HETATM   77  C4  NAG A1179      11.707 -11.701   0.872  1.00 34.48     0.211 C 
HETATM   78  C5  NAG A1179      12.434 -10.983   2.011  1.00 33.80     0.184 C 
HETATM   79  O6  NAG A1179      11.675  -8.800   1.278  1.00 34.45    -0.218 OA
HETATM   80  C3  NAG A1179      11.362 -13.125   1.295  1.00 35.20     0.178 C 
HETATM   81  C6  NAG A1179      12.819  -9.549   1.646  1.00 33.90     0.214 C 
HETATM   82  C6  BDP A1180      13.699 -14.978  -2.862  1.00 44.31     0.216 C 
HETATM   83  O3  BDP A1180       9.241 -17.097  -2.678  1.00 42.86    -0.218 OA
HETATM   84  C1  BDP A1180      11.046 -14.817  -0.334  1.00 41.45     0.270 C 
HETATM   85  O2  BDP A1180       9.383 -16.403   0.264  1.00 42.80    -0.215 OA
HETATM   86  C3  BDP A1180      10.359 -16.754  -1.885  1.00 42.94     0.217 C 
HETATM   87  O4  BDP A1180      12.148 -17.402  -3.345  1.00 43.26    -0.326 OA
HETATM   88  O5  BDP A1180      11.867 -14.387  -1.397  1.00 42.98    -0.318 OA
HETATM   89  C5  BDP A1180      12.529 -15.474  -2.010  1.00 43.61     0.234 C 
HETATM   90  O6B BDP A1180      13.480 -14.074  -3.705  1.00 44.97    -0.646 OA
HETATM   91  O6A BDP A1180      14.823 -15.497  -2.658  1.00 44.54    -0.646 OA
HETATM   92  C2  BDP A1180       9.919 -15.714  -0.846  1.00 42.38     0.241 C 
HETATM   93  C4  BDP A1180      11.496 -16.279  -2.795  1.00 43.31     0.189 C 
ENDROOT
TORSDOF 23
