REMARK  0 active torsions:
REMARK  status: ('A' for Active; 'I' for Inactive)
REMARK       I    between atoms: O4_1674  and  C4_1667 
REMARK       I    between atoms: O4_1674  and  S_1681 
REMARK       I    between atoms: C6_1669  and  C5_1668 
REMARK       I    between atoms: C2_1665  and  N_1672 
REMARK       I    between atoms: C1_1664  and  O4_1659 
REMARK       I    between atoms: C3_1666  and  O3_1673 
REMARK       I    between atoms: N_1672  and  C7_1670 
REMARK       I    between atoms: C1_1682  and  O3_1673 
REMARK       I    between atoms: C6_1687  and  C5_1686 
REMARK       I    between atoms: O4_1690  and  C4_1685 
REMARK       I    between atoms: O4_1690  and  C1_1694 
REMARK       I    between atoms: C1_1724  and  O4_1720 
REMARK       I    between atoms: C4_1727  and  O4_1733 
REMARK       I    between atoms: C6_1729  and  C5_1728 
REMARK       I    between atoms: S_1740  and  O4_1733 
REMARK       I    between atoms: C7_1730  and  N_1732 
REMARK       I    between atoms: N_1732  and  C2_1725 
REMARK       I    between atoms: C5_1716  and  C6_1717 
REMARK       I    between atoms: O4_1720  and  C4_1715 
REMARK       I    between atoms: O3_1703  and  C1_1712 
REMARK       I    between atoms: C6_1656  and  C5_1655 
REMARK       I    between atoms: C4_1654  and  O4_1659 
REMARK       I    between atoms: O3_1703  and  C3_1696 
REMARK       I    between atoms: C5_1698  and  C6_1699 
REMARK       I    between atoms: O4_1704  and  C4_1697 
REMARK       I    between atoms: O4_1704  and  S_1711 
REMARK       I    between atoms: C7_1700  and  N_1702 
REMARK       I    between atoms: N_1702  and  C2_1695 
ROOT
HETATM    1  OSB ASG A 302      17.283  41.819  43.538  1.00 22.64    -0.572 OA
HETATM    2  O6  ASG A 302      16.917  38.558  40.615  1.00 26.81    -0.218 OA
HETATM    3  O4  ASG A 302      18.823  39.993  44.229  1.00 22.65    -0.235 OA
HETATM    4  S   ASG A 302      18.056  41.330  44.663  1.00 19.50     0.252 S 
HETATM    5  C6  ASG A 302      17.294  39.214  41.822  1.00 21.82     0.214 C 
HETATM    6  C2  ASG A 302      20.245  37.565  44.460  1.00 21.61     0.192 C 
HETATM    7  C1  ASG A 302      20.119  37.134  43.006  1.00 21.91     0.262 C 
HETATM    8  O5  ASG A 302      19.348  38.079  42.229  1.00 20.03    -0.327 OA
HETATM    9  C5  ASG A 302      18.008  38.259  42.744  1.00 22.50     0.182 C 
HETATM   10  O7  ASG A 302      22.580  38.014  46.084  1.00 28.70    -0.271 OA
HETATM   11  C3  ASG A 302      18.842  37.701  45.023  1.00 21.45     0.176 C 
HETATM   12  C8  ASG A 302      22.746  35.696  46.689  1.00 27.73     0.100 C 
HETATM   13  OSA ASG A 302      17.171  41.060  45.781  1.00 19.01    -0.572 OA
HETATM   14  N   ASG A 302      21.013  36.541  45.229  1.00 24.27    -0.232 NA
HETATM   15  C7  ASG A 302      22.131  36.883  45.985  1.00 26.47     0.252 C 
HETATM   16  OSC ASG A 302      19.027  42.329  45.048  1.00 21.49    -0.572 OA
HETATM   17  O3  ASG A 302      18.957  38.150  46.325  1.00 21.47    -0.327 OA
HETATM   18  C4  ASG A 302      18.083  38.757  44.202  1.00 20.15     0.196 C 
HETATM   19  C6  BDP A 303      14.765  36.444  47.620  1.00 25.26     0.216 C 
HETATM   20  O4  BDP A 303      15.899  36.136  50.349  1.00 20.38    -0.326 OA
HETATM   21  O3  BDP A 303      18.333  37.427  51.001  1.00 15.03    -0.218 OA
HETATM   22  C3  BDP A 303      18.039  36.933  49.684  1.00 18.93     0.217 C 
HETATM   23  O6B BDP A 303      14.141  37.496  47.866  1.00 26.77    -0.646 OA
HETATM   24  C4  BDP A 303      16.525  36.966  49.431  1.00 20.03     0.189 C 
HETATM   25  C2  BDP A 303      18.708  37.829  48.660  1.00 19.30     0.241 C 
HETATM   26  O6A BDP A 303      14.359  35.375  47.109  1.00 28.73    -0.646 OA
HETATM   27  C1  BDP A 303      18.379  37.317  47.267  1.00 20.65     0.270 C 
HETATM   28  C5  BDP A 303      16.245  36.444  47.996  1.00 22.21     0.234 C 
HETATM   29  O5  BDP A 303      16.945  37.286  47.038  1.00 22.13    -0.318 OA
HETATM   30  O2  BDP A 303      20.128  37.813  48.835  1.00 19.80    -0.215 OA
HETATM   31  C1  ASG A 306       6.718  36.695  50.111  1.00 28.92     0.259 C 
HETATM   32  C4  ASG A 306       4.617  38.681  49.625  1.00 25.90     0.169 C 
HETATM   33  C6  ASG A 306       6.400  40.396  50.214  1.00 23.89     0.214 C 
HETATM   34  S   ASG A 306       2.813  39.597  51.221  1.00 29.21     0.252 S 
HETATM   35  O4  ASG A 306       4.113  38.724  50.961  1.00 26.90    -0.238 OA
HETATM   36  OSB ASG A 306       2.447  39.492  52.622  1.00 30.42    -0.572 OA
HETATM   37  OSA ASG A 306       3.096  40.984  50.898  1.00 32.33    -0.572 OA
HETATM   38  C3  ASG A 306       4.399  37.230  49.064  1.00 36.49     0.063 C 
HETATM   39  C7  ASG A 306       4.984  33.813  50.505  1.00 35.49     0.252 C 
HETATM   40  N   ASG A 306       5.222  34.846  49.595  1.00 32.79    -0.235 NA
HETATM   41  C8  ASG A 306       4.978  32.454  49.851  1.00 35.79     0.100 C 
HETATM   42  C2  ASG A 306       5.282  36.274  50.040  1.00 29.91     0.165 C 
HETATM   43  O5  ASG A 306       6.833  38.071  50.544  1.00 25.61    -0.327 OA
HETATM   44  O6  ASG A 306       7.801  40.633  50.342  1.00 21.37    -0.218 OA
HETATM   45  O7  ASG A 306       4.805  33.972  51.709  1.00 36.15    -0.271 OA
HETATM   46  OSC ASG A 306       1.729  39.117  50.393  1.00 29.73    -0.572 OA
HETATM   47  C5  ASG A 306       6.138  39.010  49.667  1.00 25.15     0.179 C 
HETATM   48  C5  BDP A 305       9.445  34.609  51.079  1.00 29.33     0.234 C 
HETATM   49  O6B BDP A 305      10.239  35.123  48.930  1.00 32.68    -0.646 OA
HETATM   50  C6  BDP A 305       9.467  34.387  49.573  1.00 32.71     0.216 C 
HETATM   51  O4  BDP A 305       7.378  35.855  51.003  1.00 28.54    -0.326 OA
HETATM   52  O3  BDP A 305       7.977  37.173  53.449  1.00 26.75    -0.218 OA
HETATM   53  C2  BDP A 305      10.143  36.161  53.436  1.00 27.85     0.241 C 
HETATM   54  C1  BDP A 305      10.940  34.930  52.979  1.00 26.69     0.270 C 
HETATM   55  C4  BDP A 305       8.669  35.881  51.492  1.00 28.78     0.189 C 
HETATM   56  O6A BDP A 305       8.694  33.485  49.167  1.00 36.25    -0.646 OA
HETATM   57  C3  BDP A 305       8.691  36.009  53.027  1.00 27.71     0.217 C 
HETATM   58  O2  BDP A 305      10.271  36.282  54.855  1.00 27.38    -0.215 OA
HETATM   59  O5  BDP A 305      10.826  34.740  51.536  1.00 27.99    -0.318 OA
HETATM   60  O6B BDP A 301      22.271  33.521  42.162  1.00 26.72    -0.646 OA
HETATM   61  C6  BDP A 301      22.856  34.560  42.540  1.00 25.19     0.216 C 
HETATM   62  O6A BDP A 301      23.381  34.827  43.643  1.00 25.89    -0.646 OA
HETATM   63  O5  BDP A 301      23.447  35.105  40.269  1.00 23.77    -0.316 OA
HETATM   64  C5  BDP A 301      22.948  35.671  41.502  1.00 23.85     0.234 C 
HETATM   65  C3  BDP A 301      21.828  37.464  40.156  1.00 22.43     0.218 C 
HETATM   66  C1  BDP A 301      23.590  36.092  39.202  1.00 24.34     0.303 C 
HETATM   67  O1  BDP A 301      24.159  35.362  38.010  1.00 23.59    -0.187 OA
HETATM   68  C4  BDP A 301      21.624  36.395  41.259  1.00 22.41     0.189 C 
HETATM   69  C2  BDP A 301      22.292  36.774  38.882  1.00 23.02     0.244 C 
HETATM   70  O2  BDP A 301      22.522  37.715  37.836  1.00 25.00    -0.215 OA
HETATM   71  O4  BDP A 301      21.364  37.047  42.449  1.00 20.21    -0.326 OA
HETATM   72  O3  BDP A 301      20.595  38.138  39.896  1.00 21.30    -0.218 OA
HETATM   73  OSC ASG A 304      15.144  35.609  56.795  1.00 30.63    -0.572 OA
HETATM   74  O3  ASG A 304      12.303  35.081  53.315  1.00 27.23    -0.327 OA
HETATM   75  C5  ASG A 304      14.368  38.207  52.895  1.00 21.57     0.182 C 
HETATM   76  C6  ASG A 304      15.026  39.217  53.803  1.00 20.79     0.214 C 
HETATM   77  O4  ASG A 304      14.532  36.419  54.531  1.00 25.39    -0.235 OA
HETATM   78  C7  ASG A 304      14.227  33.467  50.317  1.00 28.35     0.252 C 
HETATM   79  C8  ASG A 304      13.440  32.671  49.301  1.00 27.44     0.100 C 
HETATM   80  S   ASG A 304      14.191  36.442  56.090  1.00 27.37     0.252 S 
HETATM   81  OSB ASG A 304      14.268  37.802  56.593  1.00 29.93    -0.572 OA
HETATM   82  N   ASG A 304      13.533  34.573  50.786  1.00 25.34    -0.232 NA
HETATM   83  C4  ASG A 304      13.610  37.102  53.667  1.00 24.06     0.196 C 
HETATM   84  C3  ASG A 304      13.004  36.117  52.646  1.00 24.71     0.176 C 
HETATM   85  C1  ASG A 304      14.856  36.655  51.100  1.00 22.06     0.262 C 
HETATM   86  O7  ASG A 304      15.352  33.159  50.675  1.00 28.93    -0.271 OA
HETATM   87  O6  ASG A 304      15.326  40.418  53.090  1.00 19.21    -0.218 OA
HETATM   88  O5  ASG A 304      15.402  37.612  52.055  1.00 22.47    -0.327 OA
HETATM   89  C2  ASG A 304      14.114  35.513  51.802  1.00 24.18     0.192 C 
HETATM   90  OSA ASG A 304      12.845  35.935  56.302  1.00 28.22    -0.572 OA
ENDROOT
TORSDOF 25
