REMARK  0 active torsions:
REMARK  status: ('A' for Active; 'I' for Inactive)
REMARK       I    between atoms: C1_3049  and  O1_3056 
REMARK       I    between atoms: C2_3050  and  N_3055 
REMARK       I    between atoms: O1_3056  and  C4_3040 
REMARK       I    between atoms: C6_3054  and  C5_3053 
REMARK       I    between atoms: C6_3054  and  O6_3059 
REMARK       I    between atoms: S2_3064  and  O6_3059 
REMARK       I    between atoms: N_3055  and  S1_3060 
REMARK       I    between atoms: O1_3074  and  C4_3052 
REMARK       I    between atoms: O2_3075  and  C2_3069 
REMARK       I    between atoms: O2_3075  and  S_3080 
REMARK       I    between atoms: C5_3072  and  C6_3073 
REMARK       I    between atoms: C4_3071  and  O1_3091 
REMARK       I    between atoms: O1_3074  and  C1_3068 
REMARK       I    between atoms: C5_3107  and  C6_3108 
REMARK       I    between atoms: C1_3103  and  O1_3109 
REMARK       I    between atoms: C4_3087  and  O1_3109 
REMARK       I    between atoms: C2_3085  and  N_3090 
REMARK       I    between atoms: C5_3088  and  C6_3089 
REMARK       I    between atoms: N_3090  and  S1_3095 
REMARK       I    between atoms: O1_3091  and  C1_3084 
REMARK       I    between atoms: O6_3094  and  C6_3089 
REMARK       I    between atoms: O6_3094  and  S2_3099 
REMARK       I    between atoms: C6_3042  and  C5_3041 
ROOT
HETATM    1  O3  SGN A 502       3.939  20.108 -24.461  1.00 63.92    -0.218 OA
HETATM    2  C1  SGN A 502       2.238  22.906 -26.330  1.00 65.66     0.263 C 
HETATM    3  O6S SGN A 502       7.104  26.906 -25.095  1.00 55.77    -0.572 OA
HETATM    4  C2  SGN A 502       2.872  21.504 -26.117  1.00 64.64     0.207 C 
HETATM    5  O1  SGN A 502       1.054  23.049 -25.572  1.00 66.90    -0.326 OA
HETATM    6  O5  SGN A 502       3.175  23.937 -25.986  1.00 64.10    -0.327 OA
HETATM    7  C6  SGN A 502       4.677  25.080 -24.487  1.00 60.73     0.198 C 
HETATM    8  S2  SGN A 502       6.701  25.902 -26.036  1.00 55.46     0.252 S 
HETATM    9  C5  SGN A 502       3.740  23.868 -24.650  1.00 62.91     0.179 C 
HETATM   10  O3S SGN A 502       1.507  20.748 -28.847  1.00 63.37    -0.577 OA
HETATM   11  N   SGN A 502       1.869  20.482 -26.450  1.00 64.07    -0.162 NA
HETATM   12  C3  SGN A 502       3.351  21.380 -24.658  1.00 64.34     0.210 C 
HETATM   13  C4  SGN A 502       4.412  22.477 -24.411  1.00 64.43     0.180 C 
HETATM   14  S1  SGN A 502       1.925  19.742 -27.912  1.00 62.82     0.227 S 
HETATM   15  O2S SGN A 502       0.997  18.651 -27.832  1.00 63.41    -0.577 OA
HETATM   16  O4S SGN A 502       7.808  25.201 -26.611  1.00 55.39    -0.572 OA
HETATM   17  O1S SGN A 502       3.269  19.315 -28.159  1.00 62.90    -0.577 OA
HETATM   18  O5S SGN A 502       5.791  26.411 -27.023  1.00 56.25    -0.572 OA
HETATM   19  O6  SGN A 502       5.863  24.857 -25.227  1.00 57.72    -0.235 OA
HETATM   20  O62 IDS A 503       6.510  17.602 -22.958  1.00 69.42    -0.646 OA
HETATM   21  O2  IDS A 503       7.618  23.229 -21.104  1.00 68.06    -0.233 OA
HETATM   22  O5  IDS A 503       6.856  21.082 -23.125  1.00 68.78    -0.318 OA
HETATM   23  C5  IDS A 503       6.490  19.912 -22.380  1.00 69.62     0.234 C 
HETATM   24  C4  IDS A 503       6.949  20.087 -20.914  1.00 71.30     0.189 C 
HETATM   25  O61 IDS A 503       8.031  18.738 -23.791  1.00 69.64    -0.646 OA
HETATM   26  O1  IDS A 503       4.807  22.223 -23.064  1.00 66.83    -0.326 OA
HETATM   27  C6  IDS A 503       7.046  18.679 -23.086  1.00 69.84     0.216 C 
HETATM   28  O1S IDS A 503       7.392  25.139 -19.670  1.00 68.00    -0.572 OA
HETATM   29  O3S IDS A 503       7.264  25.419 -22.038  1.00 67.92    -0.572 OA
HETATM   30  C3  IDS A 503       6.299  21.366 -20.318  1.00 69.19     0.216 C 
HETATM   31  O2S IDS A 503       9.345  24.864 -21.024  1.00 67.98    -0.572 OA
HETATM   32  S   IDS A 503       7.916  24.757 -20.947  1.00 67.92     0.252 S 
HETATM   33  O3  IDS A 503       4.942  21.079 -20.034  1.00 69.02    -0.218 OA
HETATM   34  C1  IDS A 503       6.178  22.283 -22.775  1.00 67.86     0.269 C 
HETATM   35  C2  IDS A 503       6.362  22.598 -21.265  1.00 68.57     0.226 C 
HETATM   36  C4  IDS A 505      16.228  16.943 -22.659  1.00 91.47     0.077 C 
HETATM   37  C5  IDS A 505      15.725  17.853 -21.490  1.00 91.73     0.207 C 
HETATM   38  O2  IDS A 505      12.748  15.948 -23.740  1.00 90.72    -0.215 OA
HETATM   39  O62 IDS A 505      16.745  17.459 -19.351  1.00 92.78    -0.646 OA
HETATM   40  C1  IDS A 505      13.376  17.143 -21.738  1.00 89.50     0.270 C 
HETATM   41  O5  IDS A 505      14.535  17.279 -20.899  1.00 90.81    -0.320 OA
HETATM   42  O1  IDS A 505      12.616  18.320 -21.761  1.00 87.94    -0.326 OA
HETATM   43  O61 IDS A 505      17.689  18.843 -20.574  1.00 92.93    -0.646 OA
HETATM   44  C6  IDS A 505      16.780  18.063 -20.404  1.00 92.37     0.214 C 
HETATM   45  C3  IDS A 505      15.096  16.061 -23.248  1.00 91.11     0.191 C 
HETATM   46  C2  IDS A 505      13.747  16.795 -23.203  1.00 90.52     0.238 C 
HETATM   47  O4S SGN A 504      10.791  13.909 -18.735  1.00 84.00    -0.572 OA
HETATM   48  C2  SGN A 504      10.394  20.085 -19.394  1.00 79.71     0.207 C 
HETATM   49  O2S SGN A 504      10.847  22.982 -17.166  1.00 79.11    -0.577 OA
HETATM   50  C5  SGN A 504      10.052  17.852 -21.229  1.00 81.52     0.179 C 
HETATM   51  O3S SGN A 504       8.559  22.377 -17.459  1.00 78.77    -0.577 OA
HETATM   52  N   SGN A 504      10.218  21.502 -19.027  1.00 79.36    -0.162 NA
HETATM   53  O1S SGN A 504      10.100  20.777 -16.623  1.00 79.33    -0.577 OA
HETATM   54  S1  SGN A 504       9.923  21.925 -17.463  1.00 79.22     0.227 S 
HETATM   55  C4  SGN A 504      11.481  18.398 -20.891  1.00 82.96     0.180 C 
HETATM   56  O1  SGN A 504       8.364  20.241 -20.761  1.00 76.54    -0.326 OA
HETATM   57  O6S SGN A 504      10.722  13.379 -21.066  1.00 83.90    -0.572 OA
HETATM   58  O6  SGN A 504      10.403  15.646 -20.355  1.00 83.36    -0.235 OA
HETATM   59  O5S SGN A 504       8.723  14.018 -19.929  1.00 83.84    -0.572 OA
HETATM   60  O3  SGN A 504      12.619  20.443 -20.275  1.00 81.23    -0.218 OA
HETATM   61  O5  SGN A 504       9.123  18.126 -20.145  1.00 80.14    -0.327 OA
HETATM   62  C6  SGN A 504       9.981  16.343 -21.509  1.00 82.47     0.198 C 
HETATM   63  S2  SGN A 504      10.153  14.146 -19.996  1.00 83.95     0.252 S 
HETATM   64  C3  SGN A 504      11.347  19.913 -20.598  1.00 80.70     0.210 C 
HETATM   65  C1  SGN A 504       9.001  19.494 -19.747  1.00 78.42     0.263 C 
HETATM   66  C1  IDS A 501      -2.311  25.713 -26.478  1.00 74.60     0.303 C 
HETATM   67  O3  IDS A 501       0.798  26.318 -26.435  1.00 73.71    -0.218 OA
HETATM   68  C2  IDS A 501      -1.213  25.599 -27.571  1.00 74.28     0.244 C 
HETATM   69  C4  IDS A 501       0.114  24.061 -25.957  1.00 71.97     0.189 C 
HETATM   70  C6  IDS A 501      -1.170  23.371 -23.807  1.00 73.72     0.216 C 
HETATM   71  C3  IDS A 501       0.184  25.190 -27.026  1.00 73.85     0.218 C 
HETATM   72  O5  IDS A 501      -2.243  24.594 -25.596  1.00 74.35    -0.316 OA
HETATM   73  O2  IDS A 501      -1.631  24.626 -28.511  1.00 74.67    -0.215 OA
HETATM   74  C5  IDS A 501      -0.988  24.404 -24.918  1.00 73.81     0.234 C 
HETATM   75  O62 IDS A 501      -0.659  23.535 -22.724  1.00 73.93    -0.646 OA
HETATM   76  O61 IDS A 501      -1.823  22.365 -23.978  1.00 73.93    -0.646 OA
HETATM   77  O1  IDS A 501      -2.154  26.932 -25.801  1.00 75.00    -0.187 OA
HETATM   78  O3  IDS A 535      15.421  15.754 -24.588  1.00 91.49    -0.220 OA
ENDROOT
TORSDOF 23
