REMARK  0 active torsions:
REMARK  status: ('A' for Active; 'I' for Inactive)
REMARK       I    between atoms: C3F_6293  and  N3G_6336 
REMARK       I    between atoms: O3M_6299  and  C3L_6298 
REMARK       I    between atoms: O3M_6299  and  C40_6300 
REMARK       I    between atoms: S17_6253  and  O16_6252 
REMARK       I    between atoms: S1G_6260  and  N1F_6337 
REMARK       I    between atoms: C21_6267  and  C23_6269 
REMARK       I    between atoms: C33_6281  and  C31_6279 
REMARK       I    between atoms: C33_6281  and  O34_6282 
REMARK       I    between atoms: N5G_6335  and  C5F_6327 
REMARK       I    between atoms: N5G_6335  and  S5H_6328 
REMARK       I    between atoms: O1L_6265  and  C1K_6264 
REMARK       I    between atoms: O1L_6265  and  C20_6266 
REMARK       I    between atoms: C49_6308  and  O4A_6309 
REMARK       I    between atoms: S3H_6294  and  N3G_6336 
REMARK       I    between atoms: C5L_6332  and  O5M_6333 
REMARK       I    between atoms: C2C_6276  and  O2D_6277 
REMARK       I    between atoms: N1F_6337  and  C1E_6259 
REMARK       I    between atoms: C30_6278  and  O2D_6277 
REMARK       I    between atoms: C13_6249  and  C15_6251 
REMARK       I    between atoms: C15_6251  and  O16_6252 
REMARK       I    between atoms: C43_6303  and  C41_6301 
REMARK       I    between atoms: S4B_6310  and  O4A_6309 
REMARK       I    between atoms: O4G_6315  and  C4F_6314 
REMARK       I    between atoms: O4G_6315  and  C50_6316 
REMARK       I    between atoms: C39_6287  and  O3A_6288 
REMARK       I    between atoms: C51_6317  and  C53_6319 
REMARK       I    between atoms: O3A_6288  and  S3B_6289 
REMARK       I    between atoms: S35_6283  and  O34_6282 
REMARK       I    between atoms: O54_6320  and  C53_6319 
REMARK       I    between atoms: O54_6320  and  S55_6321 
ROOT
HETATM    1  O58 NTO I 863      66.714   4.803  19.873  1.00110.89    -0.572 OA
HETATM    2  O32 NTO I 863      64.299   3.218  10.608  1.00 97.07    -0.327 OA
HETATM    3  C3F NTO I 863      62.844   4.417  12.108  1.00 94.01     0.205 C 
HETATM    4  O2A NTO I 863      60.481  -0.954   9.300  1.00 90.54    -0.215 OA
HETATM    5  O4C NTO I 863      70.482   1.423  14.620  1.00116.81    -0.572 OA
HETATM    6  O3M NTO I 863      64.547   2.913  12.933  1.00101.57    -0.326 OA
HETATM    7  S17 NTO I 863      51.429   1.841  11.103  1.00 76.76     0.252 S 
HETATM    8  S1G NTO I 863      56.295  -2.154   5.179  1.00 98.36     0.227 S 
HETATM    9  O44 NTO I 863      64.663  -0.816  12.691  1.00110.40    -0.646 OA
HETATM   10  C5N NTO I 863      69.475  -2.490  20.684  1.00104.40     0.177 C 
HETATM   11  C21 NTO I 863      58.080   2.437   9.078  1.00 92.95     0.234 C 
HETATM   12  C33 NTO I 863      63.559   1.382   9.207  1.00 99.23     0.198 C 
HETATM   13  C23 NTO I 863      57.046   3.480   9.461  1.00 94.50     0.216 C 
HETATM   14  N5G NTO I 863      67.060  -3.005  18.712  1.00104.67    -0.162 NA
HETATM   15  O1L NTO I 863      56.359   1.222   7.908  1.00 91.58    -0.326 OA
HETATM   16  O57 NTO I 863      68.926   4.997  18.850  1.00110.52    -0.572 OA
HETATM   17  C49 NTO I 863      67.988   2.466  14.055  1.00109.48     0.226 C 
HETATM   18  C46 NTO I 863      66.934   3.249  13.269  1.00107.27     0.216 C 
HETATM   19  S3H NTO I 863      63.778   6.372  13.401  1.00 88.30     0.227 S 
HETATM   20  O3I NTO I 863      65.104   5.970  13.975  1.00 88.24    -0.577 OA
HETATM   21  C29 NTO I 863      59.482   0.005   9.649  1.00 91.06     0.241 C 
HETATM   22  O42 NTO I 863      66.033   1.332  14.981  1.00107.60    -0.318 OA
HETATM   23  C59 NTO I 863      67.618  -1.151  17.194  1.00104.26     0.210 C 
HETATM   24  C1K NTO I 863      55.465   0.099   7.934  1.00 92.24     0.263 C 
HETATM   25  C1B NTO I 863      54.482   0.865   5.768  1.00 91.37     0.213 C 
HETATM   26  C40 NTO I 863      65.838   2.302  12.775  1.00105.39     0.189 C 
HETATM   27  C5L NTO I 863      68.046  -0.959  19.658  1.00104.14     0.262 C 
HETATM   28  N3G NTO I 863      62.771   5.092  13.411  1.00 91.18    -0.162 NA
HETATM   29  C20 NTO I 863      57.360   1.102   8.930  1.00 91.56     0.189 C 
HETATM   30  C2C NTO I 863      60.118   1.394   9.739  1.00 91.27     0.270 C 
HETATM   31  O1H NTO I 863      55.221  -2.154   4.132  1.00 99.63    -0.577 OA
HETATM   32  N1F NTO I 863      56.411  -0.655   5.811  1.00 95.76    -0.162 NA
HETATM   33  O37 NTO I 863      64.218   0.632   6.613  1.00100.29    -0.572 OA
HETATM   34  C5F NTO I 863      67.121  -1.541  18.588  1.00104.28     0.207 C 
HETATM   35  O38 NTO I 863      63.545   2.842   5.797  1.00101.88    -0.572 OA
HETATM   36  C30 NTO I 863      61.958   2.520  10.742  1.00 94.25     0.178 C 
HETATM   37  C13 NTO I 863      53.604   1.595   8.019  1.00 90.05     0.182 C 
HETATM   38  O1I NTO I 863      55.951  -3.142   6.254  1.00 97.26    -0.577 OA
HETATM   39  C15 NTO I 863      52.297   1.856   8.776  1.00 87.95     0.198 C 
HETATM   40  O14 NTO I 863      54.241   0.447   8.602  1.00 91.91    -0.327 OA
HETATM   41  C43 NTO I 863      64.604   0.235  13.363  1.00108.96     0.216 C 
HETATM   42  O16 NTO I 863      52.500   2.059  10.177  1.00 82.64    -0.235 OA
HETATM   43  S4B NTO I 863      70.328   2.810  14.069  1.00116.86     0.252 S 
HETATM   44  O22 NTO I 863      59.117   2.367  10.075  1.00 91.77    -0.318 OA
HETATM   45  O4G NTO I 863      68.188   0.776  15.816  1.00105.84    -0.326 OA
HETATM   46  O4D NTO I 863      70.436   2.770  12.573  1.00114.92    -0.572 OA
HETATM   47  O5I NTO I 863      64.641  -3.818  18.586  1.00104.93    -0.577 OA
HETATM   48  C31 NTO I 863      63.406   2.094  10.554  1.00 96.43     0.179 C 
HETATM   49  C39 NTO I 863      61.814   3.287  12.060  1.00 93.60     0.195 C 
HETATM   50  O3K NTO I 863      63.955   6.835  11.986  1.00 88.66    -0.577 OA
HETATM   51  O4A NTO I 863      69.053   3.336  14.451  1.00114.26    -0.233 OA
HETATM   52  C51 NTO I 863      68.703   0.799  18.193  1.00105.22     0.179 C 
HETATM   53  C3L NTO I 863      64.253   3.859  11.893  1.00 97.48     0.262 C 
HETATM   54  O3A NTO I 863      60.502   3.851  12.150  1.00 91.39    -0.236 OA
HETATM   55  O19 NTO I 863      50.258   2.707  10.746  1.00 76.13    -0.572 OA
HETATM   56  O52 NTO I 863      68.172   0.461  19.484  1.00103.23    -0.327 OA
HETATM   57  O1A NTO I 863      51.891   2.175  12.489  1.00 77.72    -0.572 OA
HETATM   58  O45 NTO I 863      63.552   0.694  13.861  1.00110.09    -0.646 OA
HETATM   59  O24 NTO I 863      57.175   4.068  10.566  1.00 96.23    -0.646 OA
HETATM   60  S35 NTO I 863      63.231   1.750   6.775  1.00102.21     0.252 S 
HETATM   61  O1C NTO I 863      54.101   0.444   4.456  1.00 88.49    -0.218 OA
HETATM   62  C26 NTO I 863      58.368   0.002   8.600  1.00 90.85     0.217 C 
HETATM   63  O5K NTO I 863      66.067  -4.671  20.385  1.00104.60    -0.577 OA
HETATM   64  C4F NTO I 863      67.351   1.817  15.287  1.00107.67     0.269 C 
HETATM   65  O5J NTO I 863      65.275  -2.363  20.447  1.00105.12    -0.577 OA
HETATM   66  O3C NTO I 863      60.742   4.131  14.528  1.00 87.84    -0.572 OA
HETATM   67  O25 NTO I 863      56.100   3.699   8.665  1.00 94.62    -0.646 OA
HETATM   68  S5H NTO I 863      65.738  -3.471  19.548  1.00104.93     0.227 S 
HETATM   69  O54 NTO I 863      67.709   2.936  18.740  1.00109.43    -0.235 OA
HETATM   70  O3D NTO I 863      58.546   4.248  13.456  1.00 88.02    -0.572 OA
HETATM   71  O56 NTO I 863      66.935   4.767  17.432  1.00110.86    -0.572 OA
HETATM   72  S3B NTO I 863      59.892   3.588  13.418  1.00 88.52     0.252 S 
HETATM   73  O4E NTO I 863      71.407   3.690  14.628  1.00115.81    -0.572 OA
HETATM   74  O5M NTO I 863      69.341  -1.573  19.595  1.00104.27    -0.327 OA
HETATM   75  O18 NTO I 863      51.020   0.399  11.045  1.00 76.04    -0.572 OA
HETATM   76  O36 NTO I 863      61.846   1.240   6.515  1.00102.94    -0.572 OA
HETATM   77  O34 NTO I 863      63.302   2.263   8.111  1.00101.76    -0.235 OA
HETATM   78  O3E NTO I 863      59.727   2.109  13.606  1.00 89.12    -0.572 OA
HETATM   79  C41 NTO I 863      65.900   1.017  13.586  1.00107.26     0.234 C 
HETATM   80  O5A NTO I 863      66.696  -1.624  16.210  1.00103.92    -0.218 OA
HETATM   81  S55 NTO I 863      67.573   4.360  18.726  1.00110.78     0.252 S 
HETATM   82  C1E NTO I 863      55.157  -0.302   6.491  1.00 92.55     0.207 C 
HETATM   83  O47 NTO I 863      67.558   3.876  12.146  1.00106.50    -0.218 OA
HETATM   84  O1J NTO I 863      57.607  -2.540   4.564  1.00 97.94    -0.577 OA
HETATM   85  O27 NTO I 863      57.715  -1.271   8.630  1.00 88.63    -0.218 OA
HETATM   86  O2D NTO I 863      61.131   1.346  10.754  1.00 92.35    -0.326 OA
HETATM   87  O10 NTO I 863      52.704   2.498   5.979  1.00 91.76    -0.218 OA
HETATM   88  C53 NTO I 863      68.869   2.318  18.180  1.00106.60     0.198 C 
HETATM   89  C50 NTO I 863      67.720   0.374  17.113  1.00105.01     0.180 C 
HETATM   90  C12 NTO I 863      53.248   1.309   6.558  1.00 90.92     0.214 C 
HETATM   91  O3J NTO I 863      63.196   7.482  14.225  1.00 88.67    -0.577 OA
ENDROOT
TORSDOF 30
