REMARK  0 active torsions:
REMARK  status: ('A' for Active; 'I' for Inactive)
REMARK       I    between atoms: O54_6514  and  C53_6513 
REMARK       I    between atoms: O54_6514  and  S55_6515 
REMARK       I    between atoms: C41_6495  and  C43_6497 
REMARK       I    between atoms: O4G_6509  and  C4F_6508 
REMARK       I    between atoms: O4G_6509  and  C50_6510 
REMARK       I    between atoms: N5G_6529  and  C5F_6521 
REMARK       I    between atoms: N5G_6529  and  S5H_6522 
REMARK       I    between atoms: N1F_6531  and  C1E_6453 
REMARK       I    between atoms: N1F_6531  and  S1G_6454 
REMARK       I    between atoms: C21_6461  and  C23_6463 
REMARK       I    between atoms: C49_6502  and  O4A_6503 
REMARK       I    between atoms: O2D_6471  and  C2C_6470 
REMARK       I    between atoms: O2D_6471  and  C30_6472 
REMARK       I    between atoms: O1L_6459  and  C1K_6458 
REMARK       I    between atoms: O1L_6459  and  C20_6460 
REMARK       I    between atoms: O4A_6503  and  S4B_6504 
REMARK       I    between atoms: N3G_6530  and  C3F_6487 
REMARK       I    between atoms: N3G_6530  and  S3H_6488 
REMARK       I    between atoms: C40_6494  and  O3M_6493 
REMARK       I    between atoms: C53_6513  and  C51_6511 
REMARK       I    between atoms: O3M_6493  and  C3L_6492 
REMARK       I    between atoms: S17_6447  and  O16_6446 
REMARK       I    between atoms: C13_6443  and  C15_6445 
REMARK       I    between atoms: C31_6473  and  C33_6475 
REMARK       I    between atoms: O3A_6482  and  C39_6481 
REMARK       I    between atoms: O3A_6482  and  S3B_6483 
REMARK       I    between atoms: C5L_6526  and  O5M_6527 
REMARK       I    between atoms: C15_6445  and  O16_6446 
REMARK       I    between atoms: C33_6475  and  O34_6476 
REMARK       I    between atoms: S35_6477  and  O34_6476 
ROOT
HETATM    1  O3I NTO L 869     -19.416  17.282 -24.454  1.00111.04    -0.577 OA
HETATM    2  O1I NTO L 869      -7.213  20.120 -15.006  1.00110.66    -0.577 OA
HETATM    3  O54 NTO L 869     -23.268  14.084 -21.445  1.00 98.59    -0.235 OA
HETATM    4  O18 NTO L 869      -5.902  12.483 -18.231  1.00 96.22    -0.572 OA
HETATM    5  C41 NTO L 869     -19.583  17.767 -19.318  1.00100.96     0.234 C 
HETATM    6  C1B NTO L 869      -6.130  19.124 -18.889  1.00101.49     0.213 C 
HETATM    7  O4G NTO L 869     -22.702  16.885 -19.311  1.00 94.63    -0.326 OA
HETATM    8  N5G NTO L 869     -23.106  13.929 -15.488  1.00 89.63    -0.162 NA
HETATM    9  N1F NTO L 869      -7.876  20.084 -17.471  1.00106.49    -0.162 NA
HETATM   10  O3K NTO L 869     -17.820  19.074 -24.961  1.00113.14    -0.577 OA
HETATM   11  C5N NTO L 869     -26.593  13.129 -16.939  1.00 86.81     0.177 C 
HETATM   12  C21 NTO L 869     -10.671  18.133 -20.610  1.00 95.48     0.234 C 
HETATM   13  C26 NTO L 869     -10.840  18.591 -18.200  1.00 94.44     0.217 C 
HETATM   14  O4E NTO L 869     -24.829  19.942 -21.741  1.00104.07    -0.572 OA
HETATM   15  C50 NTO L 869     -22.864  15.511 -18.929  1.00 92.41     0.180 C 
HETATM   16  C49 NTO L 869     -21.634  18.519 -20.717  1.00100.41     0.226 C 
HETATM   17  O2D NTO L 869     -14.213  17.993 -19.768  1.00 99.41    -0.326 OA
HETATM   18  O1L NTO L 869      -8.682  18.127 -19.277  1.00 98.29    -0.326 OA
HETATM   19  O19 NTO L 869      -4.670  12.859 -20.318  1.00 96.50    -0.572 OA
HETATM   20  C46 NTO L 869     -20.332  18.828 -21.457  1.00100.81     0.216 C 
HETATM   21  O4A NTO L 869     -22.756  18.785 -21.562  1.00103.47    -0.233 OA
HETATM   22  N3G NTO L 869     -16.988  16.993 -23.701  1.00110.22    -0.162 NA
HETATM   23  O36 NTO L 869     -12.450  22.058 -19.582  1.00111.06    -0.572 OA
HETATM   24  O57 NTO L 869     -24.365  14.414 -23.544  1.00101.08    -0.572 OA
HETATM   25  C40 NTO L 869     -19.154  18.611 -20.510  1.00100.28     0.189 C 
HETATM   26  O5I NTO L 869     -20.908  12.828 -14.807  1.00 88.33    -0.577 OA
HETATM   27  C20 NTO L 869     -10.076  17.790 -19.253  1.00 95.70     0.189 C 
HETATM   28  C53 NTO L 869     -24.245  14.986 -20.923  1.00 95.06     0.198 C 
HETATM   29  O3M NTO L 869     -18.124  17.935 -21.241  1.00100.16    -0.326 OA
HETATM   30  C43 NTO L 869     -18.331  17.270 -18.612  1.00102.66     0.216 C 
HETATM   31  S17 NTO L 869      -6.017  12.918 -19.661  1.00 96.87     0.252 S 
HETATM   32  O45 NTO L 869     -17.466  16.677 -19.296  1.00103.98    -0.646 OA
HETATM   33  O47 NTO L 869     -20.346  20.191 -21.892  1.00101.31    -0.218 OA
HETATM   34  O5K NTO L 869     -22.961  12.153 -13.647  1.00 89.47    -0.577 OA
HETATM   35  C2C NTO L 869     -12.853  18.454 -19.705  1.00 96.20     0.270 C 
HETATM   36  O38 NTO L 869     -13.840  23.606 -20.865  1.00112.21    -0.572 OA
HETATM   37  O1J NTO L 869      -8.002  22.194 -16.045  1.00110.04    -0.577 OA
HETATM   38  C12 NTO L 869      -5.408  17.824 -19.254  1.00101.58     0.214 C 
HETATM   39  S4B NTO L 869     -23.479  19.926 -21.091  1.00103.30     0.252 S 
HETATM   40  O4D NTO L 869     -22.729  21.177 -21.441  1.00101.73    -0.572 OA
HETATM   41  C1E NTO L 869      -7.072  18.879 -17.710  1.00102.58     0.207 C 
HETATM   42  C13 NTO L 869      -6.407  16.680 -19.441  1.00101.21     0.182 C 
HETATM   43  C29 NTO L 869     -12.325  18.232 -18.285  1.00 94.44     0.241 C 
HETATM   44  O42 NTO L 869     -20.371  16.647 -19.759  1.00 98.49    -0.318 OA
HETATM   45  C31 NTO L 869     -16.056  19.416 -20.362  1.00104.33     0.179 C 
HETATM   46  C3F NTO L 869     -16.387  18.046 -22.862  1.00105.40     0.205 C 
HETATM   47  S5H NTO L 869     -22.376  12.567 -14.965  1.00 88.63     0.227 S 
HETATM   48  S1G NTO L 869      -7.203  20.943 -16.261  1.00109.98     0.227 S 
HETATM   49  O5J NTO L 869     -22.584  11.461 -15.956  1.00 89.37    -0.577 OA
HETATM   50  C5F NTO L 869     -23.056  13.995 -16.956  1.00 90.30     0.207 C 
HETATM   51  S3H NTO L 869     -17.998  17.590 -24.838  1.00112.96     0.227 S 
HETATM   52  O25 NTO L 869      -8.793  17.988 -22.064  1.00 93.90    -0.646 OA
HETATM   53  O1C NTO L 869      -5.169  20.122 -18.537  1.00 98.62    -0.218 OA
HETATM   54  O3A NTO L 869     -14.421  16.699 -22.390  1.00100.33    -0.236 OA
HETATM   55  C5L NTO L 869     -24.367  13.466 -17.541  1.00 89.78     0.262 C 
HETATM   56  C30 NTO L 869     -14.925  18.542 -20.888  1.00102.90     0.178 C 
HETATM   57  C23 NTO L 869      -9.846  17.429 -21.677  1.00 94.67     0.216 C 
HETATM   58  O3E NTO L 869     -14.595  14.997 -20.702  1.00 97.83    -0.572 OA
HETATM   59  O14 NTO L 869      -7.249  16.543 -18.285  1.00100.44    -0.327 OA
HETATM   60  O2A NTO L 869     -13.061  19.043 -17.368  1.00 92.67    -0.215 OA
HETATM   61  C3L NTO L 869     -17.487  18.837 -22.156  1.00103.57     0.262 C 
HETATM   62  C4F NTO L 869     -21.649  17.054 -20.271  1.00 97.85     0.269 C 
HETATM   63  C15 NTO L 869      -5.628  15.372 -19.606  1.00100.38     0.198 C 
HETATM   64  S55 NTO L 869     -23.150  13.867 -22.856  1.00100.29     0.252 S 
HETATM   65  O58 NTO L 869     -23.044  12.395 -23.117  1.00 99.51    -0.572 OA
HETATM   66  C51 NTO L 869     -24.212  14.980 -19.393  1.00 92.58     0.179 C 
HETATM   67  O56 NTO L 869     -21.929  14.561 -23.382  1.00 99.65    -0.572 OA
HETATM   68  O3J NTO L 869     -17.691  16.959 -26.164  1.00111.95    -0.577 OA
HETATM   69  O44 NTO L 869     -18.220  17.485 -17.377  1.00103.10    -0.646 OA
HETATM   70  O10 NTO L 869      -4.700  18.022 -20.480  1.00103.23    -0.218 OA
HETATM   71  C59 NTO L 869     -22.807  15.436 -17.404  1.00 91.08     0.210 C 
HETATM   72  O52 NTO L 869     -24.408  13.621 -18.969  1.00 90.48    -0.327 OA
HETATM   73  O27 NTO L 869     -10.353  18.269 -16.894  1.00 93.08    -0.218 OA
HETATM   74  O1A NTO L 869      -6.971  12.013 -20.379  1.00 97.66    -0.572 OA
HETATM   75  O5A NTO L 869     -21.505  15.852 -16.980  1.00 90.61    -0.218 OA
HETATM   76  O37 NTO L 869     -14.508  22.942 -18.599  1.00111.93    -0.572 OA
HETATM   77  O24 NTO L 869     -10.250  16.320 -22.101  1.00 94.96    -0.646 OA
HETATM   78  O1H NTO L 869      -5.791  21.293 -16.625  1.00109.25    -0.577 OA
HETATM   79  O22 NTO L 869     -12.056  17.748 -20.670  1.00 96.38    -0.318 OA
HETATM   80  O3D NTO L 869     -13.445  14.558 -22.820  1.00 97.77    -0.572 OA
HETATM   81  C33 NTO L 869     -15.455  20.593 -19.588  1.00107.21     0.198 C 
HETATM   82  S35 NTO L 869     -13.858  22.484 -19.871  1.00112.06     0.252 S 
HETATM   83  S3B NTO L 869     -14.581  15.293 -22.173  1.00 97.49     0.252 S 
HETATM   84  O4C NTO L 869     -23.648  19.836 -19.603  1.00103.74    -0.572 OA
HETATM   85  C39 NTO L 869     -15.490  17.435 -21.784  1.00103.54     0.195 C 
HETATM   86  O16 NTO L 869      -6.518  14.259 -19.711  1.00 98.67    -0.235 OA
HETATM   87  O5M NTO L 869     -25.502  14.054 -16.893  1.00 88.13    -0.327 OA
HETATM   88  O3C NTO L 869     -15.871  14.829 -22.781  1.00 97.21    -0.572 OA
HETATM   89  C1K NTO L 869      -8.021  17.734 -18.066  1.00100.88     0.263 C 
HETATM   90  O32 NTO L 869     -16.880  19.916 -21.427  1.00103.25    -0.327 OA
HETATM   91  O34 NTO L 869     -14.598  21.384 -20.417  1.00110.77    -0.235 OA
ENDROOT
TORSDOF 30
