REMARK  0 active torsions:
REMARK  status: ('A' for Active; 'I' for Inactive)
REMARK       I    between atoms: C6_3295  and  C5_3294 
REMARK       I    between atoms: O1_3310  and  C4_3293 
REMARK       I    between atoms: O4_3312  and  C4_3305 
REMARK       I    between atoms: O4_3312  and  S_3319 
REMARK       I    between atoms: O1_3310  and  C1_3302 
REMARK       I    between atoms: C5_3306  and  C6_3307 
REMARK       I    between atoms: O1_3330  and  C3_3304 
REMARK       I    between atoms: C7_3308  and  N_3311 
REMARK       I    between atoms: C2_3303  and  N_3311 
REMARK       I    between atoms: C6_3325  and  C5_3324 
REMARK       I    between atoms: C1_3320  and  O1_3330 
REMARK       I    between atoms: O1_3340  and  C4_3323 
REMARK       I    between atoms: O4_3372  and  C4_3365 
REMARK       I    between atoms: O4_3372  and  S_3379 
REMARK       I    between atoms: C2_3363  and  N_3371 
REMARK       I    between atoms: C1_3362  and  O1_3370 
REMARK       I    between atoms: C7_3368  and  N_3371 
REMARK       I    between atoms: O1_3370  and  C4_3353 
REMARK       I    between atoms: C5_3366  and  C6_3367 
REMARK       I    between atoms: C5_3354  and  C6_3355 
REMARK       I    between atoms: C1_3350  and  O1_3360 
REMARK       I    between atoms: C3_3334  and  O1_3360 
REMARK       I    between atoms: C5_3336  and  C6_3337 
REMARK       I    between atoms: C7_3338  and  N_3341 
REMARK       I    between atoms: C4_3335  and  O4_3342 
REMARK       I    between atoms: S_3349  and  O4_3342 
REMARK       I    between atoms: O1_3340  and  C1_3332 
REMARK       I    between atoms: N_3341  and  C2_3333 
ROOT
HETATM    1  O6B BDP A 216      26.698 -10.050  98.318  1.00 69.19    -0.646 OA
HETATM    2  C6  BDP A 216      27.301 -10.377  99.363  1.00 68.04     0.216 C 
HETATM    3  C3  BDP A 216      24.386 -10.585 101.899  1.00 69.56     0.218 C 
HETATM    4  O6A BDP A 216      28.468 -10.822  99.381  1.00 71.76    -0.646 OA
HETATM    5  O5  BDP A 216      26.455  -8.842 100.995  1.00 79.16    -0.316 OA
HETATM    6  C4  BDP A 216      25.195 -10.883 100.638  1.00 61.33     0.189 C 
HETATM    7  O2  BDP A 216      23.851  -8.872 103.502  1.00 61.06    -0.215 OA
HETATM    8  C5  BDP A 216      26.573 -10.220 100.695  1.00 67.05     0.234 C 
HETATM    9  O1  BDP A 216      25.927  -7.244 102.597  1.00 79.55    -0.187 OA
HETATM   10  O3  BDP A 216      23.044 -10.982 101.708  1.00 63.32    -0.218 OA
HETATM   11  C1  BDP A 216      25.885  -8.618 102.267  1.00 75.96     0.303 C 
HETATM   12  C2  BDP A 216      24.440  -9.098 102.242  1.00 71.08     0.244 C 
HETATM   13  O4  ASG A 217      22.622 -15.433  98.830  1.00 34.40    -0.235 OA
HETATM   14  O7  ASG A 217      26.707 -15.617 100.780  1.00 43.98    -0.271 OA
HETATM   15  O1  ASG A 217      25.299 -12.257 100.515  1.00 52.94    -0.326 OA
HETATM   16  C5  ASG A 217      22.607 -13.114  98.028  1.00 40.68     0.182 C 
HETATM   17  C1  ASG A 217      24.704 -12.748  99.325  1.00 49.84     0.262 C 
HETATM   18  C6  ASG A 217      21.060 -12.845  97.949  1.00 35.67     0.214 C 
HETATM   19  OSA ASG A 217      21.959 -17.219  97.147  1.00 30.99    -0.572 OA
HETATM   20  C3  ASG A 217      24.560 -14.596  97.589  1.00 41.28     0.176 C 
HETATM   21  C7  ASG A 217      27.352 -15.000 100.006  1.00 49.29     0.252 C 
HETATM   22  C2  ASG A 217      25.230 -14.152  98.883  1.00 41.14     0.192 C 
HETATM   23  O5  ASG A 217      23.207 -12.709  99.318  1.00 44.38    -0.327 OA
HETATM   24  OSB ASG A 217      20.283 -16.366  98.643  1.00 30.58    -0.572 OA
HETATM   25  OSC ASG A 217      22.039 -17.794  99.449  1.00 41.51    -0.572 OA
HETATM   26  C8  ASG A 217      28.884 -15.152 100.003  1.00 57.16     0.100 C 
HETATM   27  S   ASG A 217      21.684 -16.744  98.503  1.00 36.89     0.252 S 
HETATM   28  O6  ASG A 217      20.623 -11.581  97.469  1.00 50.33    -0.218 OA
HETATM   29  C4  ASG A 217      23.044 -14.589  97.772  1.00 32.53     0.196 C 
HETATM   30  N   ASG A 217      26.697 -14.266  98.928  1.00 44.16    -0.232 NA
HETATM   31  C6  BDP A 218      25.539 -15.914  92.727  1.00 44.36     0.216 C 
HETATM   32  O3  BDP A 218      27.565 -19.380  95.557  1.00 35.31    -0.218 OA
HETATM   33  C1  BDP A 218      25.742 -16.250  96.413  1.00 30.95     0.270 C 
HETATM   34  C2  BDP A 218      26.193 -17.703  96.533  1.00 32.54     0.241 C 
HETATM   35  O6A BDP A 218      26.050 -14.967  92.088  1.00 54.57    -0.646 OA
HETATM   36  O1  BDP A 218      24.793 -15.958  97.421  1.00 31.88    -0.327 OA
HETATM   37  C3  BDP A 218      27.220 -18.020  95.461  1.00 27.31     0.217 C 
HETATM   38  O5  BDP A 218      25.181 -16.079  95.126  1.00 32.75    -0.318 OA
HETATM   39  C5  BDP A 218      26.132 -16.267  94.090  1.00 35.85     0.234 C 
HETATM   40  C4  BDP A 218      26.634 -17.708  94.088  1.00 35.57     0.189 C 
HETATM   41  O2  BDP A 218      26.753 -17.954  97.803  1.00 38.80    -0.215 OA
HETATM   42  O6B BDP A 218      24.583 -16.600  92.302  1.00 47.72    -0.646 OA
HETATM   43  O4  ASG A 221      27.490 -13.778  80.489  1.00 98.03    -0.238 OA
HETATM   44  OSB ASG A 221      26.810 -11.327  80.646  1.00110.65    -0.572 OA
HETATM   45  OSC ASG A 221      28.779 -11.860  79.402  1.00106.00    -0.572 OA
HETATM   46  C2  ASG A 221      27.215 -16.346  81.504  1.00 86.33     0.165 C 
HETATM   47  C1  ASG A 221      28.358 -16.184  82.564  1.00 84.85     0.259 C 
HETATM   48  C3  ASG A 221      27.740 -16.154  80.097  1.00 84.28     0.063 C 
HETATM   49  O7  ASG A 221      25.273 -17.392  79.655  1.00 92.49    -0.271 OA
HETATM   50  C7  ASG A 221      25.591 -18.088  80.557  1.00 93.89     0.252 C 
HETATM   51  O6  ASG A 221      31.960 -13.906  81.323  1.00 77.91    -0.218 OA
HETATM   52  O1  ASG A 221      27.899 -16.146  83.912  1.00 75.49    -0.326 OA
HETATM   53  C5  ASG A 221      29.678 -14.964  80.793  1.00 94.05     0.179 C 
HETATM   54  C4  ASG A 221      28.360 -14.783  79.993  1.00 94.41     0.169 C 
HETATM   55  OSA ASG A 221      28.776 -12.002  81.788  1.00102.43    -0.572 OA
HETATM   56  S   ASG A 221      27.979 -12.200  80.579  1.00124.09     0.252 S 
HETATM   57  O5  ASG A 221      29.302 -15.067  82.220  1.00 87.36    -0.327 OA
HETATM   58  C8  ASG A 221      24.957 -19.483  80.693  1.00 82.70     0.100 C 
HETATM   59  C6  ASG A 221      30.849 -13.975  80.441  1.00 93.37     0.214 C 
HETATM   60  N   ASG A 221      26.401 -17.565  81.657  1.00 93.38    -0.235 NA
HETATM   61  O5  BDP A 220      28.143 -18.468  86.564  1.00 55.31    -0.318 OA
HETATM   62  C5  BDP A 220      27.548 -17.682  85.551  1.00 64.94     0.234 C 
HETATM   63  C6  BDP A 220      26.688 -18.552  84.638  1.00 78.64     0.216 C 
HETATM   64  C1  BDP A 220      28.673 -17.662  87.594  1.00 50.56     0.270 C 
HETATM   65  C3  BDP A 220      29.402 -16.050  85.744  1.00 65.75     0.217 C 
HETATM   66  O2  BDP A 220      30.251 -15.913  88.001  1.00 43.76    -0.215 OA
HETATM   67  O6B BDP A 220      27.229 -19.530  84.068  1.00 79.40    -0.646 OA
HETATM   68  C2  BDP A 220      29.801 -16.814  87.013  1.00 54.19     0.241 C 
HETATM   69  O3  BDP A 220      30.564 -15.551  85.105  1.00 60.43    -0.218 OA
HETATM   70  O1  BDP A 220      29.192 -18.468  88.642  1.00 47.70    -0.327 OA
HETATM   71  O6A BDP A 220      25.480 -18.238  84.505  1.00 70.85    -0.646 OA
HETATM   72  C4  BDP A 220      28.635 -16.948  84.772  1.00 71.19     0.189 C 
HETATM   73  OSC ASG A 219      31.888 -21.955  90.757  1.00 52.73    -0.572 OA
HETATM   74  C5  ASG A 219      27.440 -20.644  91.056  1.00 30.26     0.182 C 
HETATM   75  C3  ASG A 219      28.252 -18.793  89.613  1.00 38.07     0.176 C 
HETATM   76  C6  ASG A 219      27.410 -22.181  91.358  1.00 29.42     0.214 C 
HETATM   77  C7  ASG A 219      29.306 -15.481  91.063  1.00 44.30     0.252 C 
HETATM   78  C4  ASG A 219      28.518 -20.236  90.015  1.00 35.25     0.196 C 
HETATM   79  S   ASG A 219      30.715 -21.744  89.911  1.00 41.83     0.252 S 
HETATM   80  C8  ASG A 219      29.113 -13.964  90.862  1.00 35.57     0.100 C 
HETATM   81  O7  ASG A 219      30.220 -15.879  91.694  1.00 45.81    -0.271 OA
HETATM   82  O6  ASG A 219      26.599 -22.652  92.425  1.00 30.38    -0.218 OA
HETATM   83  OSB ASG A 219      29.959 -22.995  89.923  1.00 51.13    -0.572 OA
HETATM   84  O1  ASG A 219      27.675 -17.558  93.186  1.00 40.45    -0.326 OA
HETATM   85  O4  ASG A 219      29.820 -20.487  90.517  1.00 53.25    -0.235 OA
HETATM   86  OSA ASG A 219      31.097 -21.359  88.550  1.00 31.23    -0.572 OA
HETATM   87  O5  ASG A 219      27.694 -19.816  92.254  1.00 36.38    -0.327 OA
HETATM   88  N   ASG A 219      28.351 -16.434  90.503  1.00 34.60    -0.232 NA
HETATM   89  C2  ASG A 219      28.437 -17.874  90.810  1.00 34.66     0.192 C 
HETATM   90  C1  ASG A 219      27.535 -18.344  92.010  1.00 33.28     0.262 C 
ENDROOT
TORSDOF 25
