REMARK  0 active torsions:
REMARK  status: ('A' for Active; 'I' for Inactive)
REMARK       I    between atoms: C6_3067  and  C5_3066 
REMARK       I    between atoms: O1_3068  and  C4_3048 
REMARK       I    between atoms: O1_3068  and  C1_3062 
REMARK       I    between atoms: O2_3069  and  C2_3063 
REMARK       I    between atoms: O2_3069  and  S_3074 
REMARK       I    between atoms: O1_3085  and  C4_3065 
REMARK       I    between atoms: C5_2957  and  C6_2958 
REMARK       I    between atoms: C2_2954  and  O2_2960 
REMARK       I    between atoms: C4_2956  and  O1_2976 
REMARK       I    between atoms: O2_2960  and  S_2965 
REMARK       I    between atoms: S_3035  and  O2_3030 
REMARK       I    between atoms: O2_3030  and  C2_3024 
REMARK       I    between atoms: C6_3028  and  C5_3027 
REMARK       I    between atoms: O1_3041  and  C4_3026 
REMARK       I    between atoms: C1_3023  and  O1_3029 
REMARK       I    between atoms: C4_3007  and  O1_3029 
REMARK       I    between atoms: S2_3094  and  O6_3089 
REMARK       I    between atoms: O1_3085  and  C1_3078 
REMARK       I    between atoms: C6_3083  and  C5_3082 
REMARK       I    between atoms: C6_3083  and  O6_3089 
REMARK       I    between atoms: N_3084  and  C2_3079 
REMARK       I    between atoms: N_3084  and  S1_3090 
REMARK       I    between atoms: O3_3046  and  C3_3045 
REMARK       I    between atoms: O3_3046  and  S3_3047 
REMARK       I    between atoms: C6_3051  and  C5_3049 
REMARK       I    between atoms: C6_3051  and  O6_3052 
REMARK       I    between atoms: S1_3042  and  N_3039 
REMARK       I    between atoms: O6_3052  and  S2_3044 
REMARK       I    between atoms: C2_3043  and  N_3039 
REMARK       I    between atoms: O1_3041  and  C1_3040 
REMARK       I    between atoms: O1_2994  and  C4_2972 
REMARK       I    between atoms: O1_2994  and  C1_2988 
REMARK       I    between atoms: C6_2993  and  C5_2992 
REMARK       I    between atoms: O2_2995  and  C2_2989 
REMARK       I    between atoms: O2_2995  and  S_3000 
REMARK       I    between atoms: O1_3011  and  C4_2991 
REMARK       I    between atoms: O1_3011  and  C1_3004 
REMARK       I    between atoms: O6_3014  and  C6_3009 
REMARK       I    between atoms: O6_3014  and  S2_3019 
REMARK       I    between atoms: S1_3015  and  N_3010 
REMARK       I    between atoms: C6_3009  and  C5_3008 
REMARK       I    between atoms: C2_3005  and  N_3010 
REMARK       I    between atoms: C1_2969  and  O1_2976 
REMARK       I    between atoms: C5_2973  and  C6_2974 
REMARK       I    between atoms: C2_2970  and  N_2975 
REMARK       I    between atoms: C6_2974  and  O6_2979 
REMARK       I    between atoms: N_2975  and  S1_2980 
REMARK       I    between atoms: O6_2979  and  S2_2984 
ROOT
HETATM    1  O1S IDS A 507      24.147   8.854  17.040  1.00 65.91    -0.572 OA
HETATM    2  C6  IDS A 507      28.586  13.236  12.543  1.00 45.16     0.216 C 
HETATM    3  O1  IDS A 507      28.577   9.391  14.462  1.00 31.78    -0.326 OA
HETATM    4  O62 IDS A 507      27.868  13.277  11.522  1.00 39.48    -0.646 OA
HETATM    5  O2  IDS A 507      26.169   9.826  16.250  1.00 55.83    -0.233 OA
HETATM    6  C1  IDS A 507      27.373  10.164  14.215  1.00 42.56     0.269 C 
HETATM    7  C2  IDS A 507      26.895  10.818  15.514  1.00 47.97     0.226 C 
HETATM    8  O3S IDS A 507      24.068  10.670  15.411  1.00 65.40    -0.572 OA
HETATM    9  O2S IDS A 507      24.767  11.109  17.723  1.00 64.68    -0.572 OA
HETATM   10  O61 IDS A 507      29.665  13.857  12.666  1.00 43.10    -0.646 OA
HETATM   11  O5  IDS A 507      27.602  11.141  13.186  1.00 43.76    -0.318 OA
HETATM   12  S   IDS A 507      24.811  10.123  16.593  1.00 64.50     0.252 S 
HETATM   13  O3  IDS A 507      25.700  12.697  16.450  1.00 48.18    -0.218 OA
HETATM   14  C3  IDS A 507      26.137  12.115  15.220  1.00 49.70     0.216 C 
HETATM   15  C4  IDS A 507      27.049  13.115  14.506  1.00 51.73     0.189 C 
HETATM   16  C5  IDS A 507      28.126  12.367  13.716  1.00 46.81     0.234 C 
HETATM   17  O3  IDS A 501      45.655   3.694  22.453  1.00 59.54    -0.218 OA
HETATM   18  C5  IDS A 501      45.901   3.038  19.620  1.00 56.23     0.234 C 
HETATM   19  O62 IDS A 501      45.404   4.629  17.913  1.00 55.95    -0.646 OA
HETATM   20  C2  IDS A 501      45.275   1.378  21.876  1.00 61.51     0.229 C 
HETATM   21  C4  IDS A 501      44.569   3.241  20.346  1.00 55.85     0.189 C 
HETATM   22  O1S IDS A 501      45.448  -1.490  22.077  1.00 69.58    -0.572 OA
HETATM   23  O3S IDS A 501      43.018  -1.509  21.775  1.00 69.06    -0.572 OA
HETATM   24  O1  IDS A 501      47.572   2.091  21.572  1.00 60.91    -0.187 OA
HETATM   25  O2  IDS A 501      44.285   0.479  21.366  1.00 66.28    -0.232 OA
HETATM   26  O5  IDS A 501      46.275   1.653  19.680  1.00 57.92    -0.316 OA
HETATM   27  C3  IDS A 501      44.738   2.809  21.804  1.00 58.98     0.216 C 
HETATM   28  S   IDS A 501      44.192  -0.678  22.202  1.00 70.12     0.252 S 
HETATM   29  C1  IDS A 501      46.546   1.252  21.032  1.00 61.02     0.301 C 
HETATM   30  O2S IDS A 501      44.010  -0.254  23.630  1.00 69.09    -0.572 OA
HETATM   31  C6  IDS A 501      45.733   3.448  18.156  1.00 56.40     0.216 C 
HETATM   32  O61 IDS A 501      45.931   2.579  17.279  1.00 55.54    -0.646 OA
HETATM   33  S   IDS A 505      35.303   5.492  11.720  1.00 23.54     0.252 S 
HETATM   34  C3  IDS A 505      32.079   4.164  10.872  1.00 20.84     0.216 C 
HETATM   35  O3  IDS A 505      31.794   3.080   9.985  1.00 20.55    -0.218 OA
HETATM   36  O2  IDS A 505      33.935   5.205  12.044  1.00 23.23    -0.233 OA
HETATM   37  C2  IDS A 505      33.462   3.965  11.504  1.00 21.40     0.226 C 
HETATM   38  O3S IDS A 505      35.245   5.576  10.226  1.00 23.56    -0.572 OA
HETATM   39  O61 IDS A 505      28.812   3.280  13.488  1.00 24.45    -0.646 OA
HETATM   40  C6  IDS A 505      29.954   2.936  13.864  1.00 26.77     0.216 C 
HETATM   41  O62 IDS A 505      30.201   2.435  14.982  1.00 24.60    -0.646 OA
HETATM   42  C4  IDS A 505      30.948   4.258  11.900  1.00 21.71     0.189 C 
HETATM   43  O1S IDS A 505      36.005   4.323  12.348  1.00 24.82    -0.572 OA
HETATM   44  O5  IDS A 505      32.381   3.219  13.544  1.00 20.87    -0.318 OA
HETATM   45  C5  IDS A 505      31.115   3.093  12.878  1.00 22.85     0.234 C 
HETATM   46  O2S IDS A 505      35.488   6.755  12.508  1.00 24.86    -0.572 OA
HETATM   47  C1  IDS A 505      33.426   2.903  12.611  1.00 19.52     0.269 C 
HETATM   48  O1  IDS A 505      33.152   1.586  12.063  1.00 19.49    -0.326 OA
HETATM   49  O4S SGN A 508      28.556  20.735  12.805  1.00 84.70    -0.572 OA
HETATM   50  S2  SGN A 508      28.858  19.506  12.000  1.00 84.58     0.252 S 
HETATM   51  O1  SGN A 508      26.260  13.945  13.614  1.00 59.97    -0.326 OA
HETATM   52  O2S SGN A 508      22.946  16.700  16.100  1.00 78.23    -0.577 OA
HETATM   53  O4  SGN A 508      25.387  16.878  10.418  1.00 73.80    -0.218 OA
HETATM   54  C6  SGN A 508      27.979  17.210  11.679  1.00 78.29     0.198 C 
HETATM   55  O5S SGN A 508      30.228  19.004  12.349  1.00 84.60    -0.572 OA
HETATM   56  C1  SGN A 508      26.079  15.260  14.202  1.00 68.82     0.263 C 
HETATM   57  C5  SGN A 508      26.896  16.269  12.212  1.00 74.71     0.182 C 
HETATM   58  O3S SGN A 508      22.266  14.398  16.587  1.00 78.09    -0.577 OA
HETATM   59  O6  SGN A 508      27.890  18.497  12.296  1.00 82.71    -0.235 OA
HETATM   60  O1S SGN A 508      24.605  15.076  16.875  1.00 78.49    -0.577 OA
HETATM   61  N   SGN A 508      23.670  14.846  14.499  1.00 75.66    -0.162 NA
HETATM   62  O3  SGN A 508      23.153  16.491  12.196  1.00 72.92    -0.218 OA
HETATM   63  C2  SGN A 508      24.662  15.769  13.930  1.00 72.48     0.207 C 
HETATM   64  O6S SGN A 508      28.802  19.837  10.538  1.00 84.48    -0.572 OA
HETATM   65  S1  SGN A 508      23.368  15.261  16.047  1.00 78.61     0.227 S 
HETATM   66  O5  SGN A 508      27.026  16.184  13.641  1.00 71.48    -0.327 OA
HETATM   67  C3  SGN A 508      24.440  15.911  12.423  1.00 73.57     0.213 C 
HETATM   68  C4  SGN A 508      25.519  16.826  11.841  1.00 74.23     0.214 C 
HETATM   69  O5  SUS A 506      28.745   6.479  12.173  1.00 20.35    -0.327 OA
HETATM   70  O4S SUS A 506      24.496   8.995  13.647  1.00 19.78    -0.572 OA
HETATM   71  O3  SUS A 506      30.894  10.000  12.930  1.00 28.66    -0.236 OA
HETATM   72  S3  SUS A 506      31.840  10.348  13.948  1.00 37.40     0.252 S 
HETATM   73  C6  SUS A 506      26.993   7.076  13.750  1.00 19.13     0.198 C 
HETATM   74  S1  SUS A 506      32.531   8.209   9.989  1.00 23.63     0.227 S 
HETATM   75  O8S SUS A 506      32.073  11.829  13.918  1.00 34.88    -0.572 OA
HETATM   76  O3S SUS A 506      32.024   7.145   9.062  1.00 24.18    -0.577 OA
HETATM   77  O6  SUS A 506      26.161   7.571  12.696  1.00 20.29    -0.235 OA
HETATM   78  C4  SUS A 506      28.918   8.633  13.273  1.00 26.00     0.178 C 
HETATM   79  C3  SUS A 506      30.431   8.651  13.053  1.00 25.07     0.195 C 
HETATM   80  S2  SUS A 506      24.751   7.722  12.896  1.00 20.55     0.252 S 
HETATM   81  O7S SUS A 506      33.142   9.644  13.703  1.00 34.33    -0.572 OA
HETATM   82  C5  SUS A 506      28.483   7.170  13.406  1.00 22.38     0.179 C 
HETATM   83  C2  SUS A 506      30.729   7.885  11.762  1.00 24.53     0.205 C 
HETATM   84  O6S SUS A 506      24.220   6.561  13.681  1.00 18.60    -0.572 OA
HETATM   85  O2S SUS A 506      34.021   8.316   9.855  1.00 25.33    -0.577 OA
HETATM   86  O1  SUS A 506      30.928   5.549  12.567  1.00 22.30    -0.326 OA
HETATM   87  O1S SUS A 506      31.899   9.520   9.629  1.00 24.29    -0.577 OA
HETATM   88  O5S SUS A 506      24.069   7.790  11.562  1.00 19.89    -0.572 OA
HETATM   89  N   SUS A 506      32.180   7.822  11.533  1.00 23.40    -0.162 NA
HETATM   90  O9S SUS A 506      31.312   9.962  15.299  1.00 35.51    -0.572 OA
HETATM   91  C1  SUS A 506      30.130   6.474  11.781  1.00 22.50     0.262 C 
HETATM   92  O1  IDS A 503      41.301   1.813  15.975  1.00 35.33    -0.326 OA
HETATM   93  C6  IDS A 503      37.045   1.644  15.967  1.00 28.65     0.216 C 
HETATM   94  O2  IDS A 503      40.221   2.105  12.493  1.00 36.62    -0.233 OA
HETATM   95  O3  IDS A 503      40.547  -0.687  14.845  1.00 31.05    -0.218 OA
HETATM   96  O61 IDS A 503      36.540   2.728  15.604  1.00 29.51    -0.646 OA
HETATM   97  C5  IDS A 503      38.485   1.338  15.546  1.00 29.33     0.234 C 
HETATM   98  O1S IDS A 503      42.283   3.328  12.538  1.00 40.04    -0.572 OA
HETATM   99  C4  IDS A 503      38.455   0.404  14.335  1.00 29.67     0.189 C 
HETATM  100  O3S IDS A 503      40.863   3.312  10.539  1.00 39.39    -0.572 OA
HETATM  101  O62 IDS A 503      36.447   0.788  16.654  1.00 29.55    -0.646 OA
HETATM  102  C1  IDS A 503      40.541   2.369  14.871  1.00 33.57     0.269 C 
HETATM  103  S   IDS A 503      41.348   2.502  11.705  1.00 40.06     0.252 S 
HETATM  104  C3  IDS A 503      39.889   0.132  13.876  1.00 31.73     0.216 C 
HETATM  105  O2S IDS A 503      42.076   1.291  11.201  1.00 37.28    -0.572 OA
HETATM  106  C2  IDS A 503      40.674   1.430  13.668  1.00 34.18     0.226 C 
HETATM  107  O5  IDS A 503      39.159   2.564  15.221  1.00 30.24    -0.318 OA
HETATM  108  O3S SGN A 504      37.582  -0.712   8.424  1.00 28.77    -0.577 OA
HETATM  109  O1  SGN A 504      37.666   0.963  13.253  1.00 26.08    -0.326 OA
HETATM  110  O6  SGN A 504      33.317  -1.547  13.826  1.00 24.62    -0.235 OA
HETATM  111  C4  SGN A 504      34.297   0.691  12.038  1.00 19.81     0.180 C 
HETATM  112  O6S SGN A 504      32.518  -2.243  15.978  1.00 23.96    -0.572 OA
HETATM  113  O3  SGN A 504      34.974   1.555   9.891  1.00 21.90    -0.218 OA
HETATM  114  S2  SGN A 504      33.216  -2.662  14.719  1.00 24.66     0.252 S 
HETATM  115  S1  SGN A 504      38.494  -0.245   9.519  1.00 26.04     0.227 S 
HETATM  116  O1S SGN A 504      39.718   0.379   8.918  1.00 26.83    -0.577 OA
HETATM  117  C6  SGN A 504      33.728  -0.265  14.311  1.00 20.80     0.198 C 
HETATM  118  C2  SGN A 504      36.586   0.277  11.150  1.00 23.01     0.207 C 
HETATM  119  C1  SGN A 504      37.010  -0.133  12.563  1.00 24.45     0.263 C 
HETATM  120  O5S SGN A 504      34.593  -3.154  15.053  1.00 23.12    -0.572 OA
HETATM  121  C5  SGN A 504      34.822   0.357  13.438  1.00 19.51     0.179 C 
HETATM  122  O5  SGN A 504      35.882  -0.607  13.318  1.00 22.65    -0.327 OA
HETATM  123  O2S SGN A 504      38.882  -1.424  10.361  1.00 27.09    -0.577 OA
HETATM  124  O4S SGN A 504      32.434  -3.760  14.061  1.00 23.87    -0.572 OA
HETATM  125  N   SGN A 504      37.729   0.867  10.436  1.00 24.29    -0.162 NA
HETATM  126  C3  SGN A 504      35.439   1.288  11.216  1.00 20.26     0.210 C 
HETATM  127  O3S SGN A 502      41.317   2.439  22.749  1.00 46.60    -0.577 OA
HETATM  128  C3  SGN A 502      41.122   1.422  18.316  1.00 40.50     0.210 C 
HETATM  129  O5  SGN A 502      42.089   4.066  18.818  1.00 42.48    -0.327 OA
HETATM  130  C1  SGN A 502      42.254   3.070  19.840  1.00 45.73     0.263 C 
HETATM  131  O2S SGN A 502      40.826   0.054  23.001  1.00 47.85    -0.577 OA
HETATM  132  C5  SGN A 502      42.206   3.501  17.501  1.00 40.09     0.179 C 
HETATM  133  O4S SGN A 502      39.444   7.026  16.194  1.00 37.59    -0.572 OA
HETATM  134  O3  SGN A 502      39.982   0.569  18.187  1.00 38.90    -0.218 OA
HETATM  135  O6S SGN A 502      41.975   7.446  16.522  1.00 40.15    -0.572 OA
HETATM  136  C2  SGN A 502      41.143   2.025  19.721  1.00 43.50     0.207 C 
HETATM  137  O5S SGN A 502      41.048   6.153  14.485  1.00 38.98    -0.572 OA
HETATM  138  C6  SGN A 502      42.178   4.653  16.494  1.00 39.25     0.198 C 
HETATM  139  O1S SGN A 502      39.212   1.520  21.883  1.00 44.42    -0.577 OA
HETATM  140  N   SGN A 502      41.390   0.937  20.679  1.00 44.81    -0.162 NA
HETATM  141  C4  SGN A 502      41.076   2.501  17.233  1.00 38.05     0.180 C 
HETATM  142  O6  SGN A 502      40.991   5.441  16.618  1.00 36.97    -0.235 OA
HETATM  143  O1  SGN A 502      43.549   2.431  19.707  1.00 50.22    -0.326 OA
HETATM  144  S1  SGN A 502      40.670   1.248  22.107  1.00 46.95     0.227 S 
HETATM  145  S2  SGN A 502      40.868   6.663  15.885  1.00 40.16     0.252 S 
ENDROOT
TORSDOF 48
