REMARK  0 active torsions:
REMARK  status: ('A' for Active; 'I' for Inactive)
REMARK       I    between atoms: C31_5927  and  C33_5929 
REMARK       I    between atoms: O2D_5925  and  C2C_5924 
REMARK       I    between atoms: O2D_5925  and  C30_5926 
REMARK       I    between atoms: O1C_5902  and  C1B_5901 
REMARK       I    between atoms: C5L_5987  and  O5M_5988 
REMARK       I    between atoms: O10_5890  and  C12_5892 
REMARK       I    between atoms: C13_5893  and  C15_5895 
REMARK       I    between atoms: C21_5913  and  C23_5915 
REMARK       I    between atoms: O16_5896  and  C15_5895 
REMARK       I    between atoms: O16_5896  and  S17_5897 
REMARK       I    between atoms: S1G_5906  and  O1F_5905 
REMARK       I    between atoms: C33_5929  and  O34_5930 
REMARK       I    between atoms: C1E_5904  and  O1F_5905 
REMARK       I    between atoms: C5F_5981  and  O5G_5982 
REMARK       I    between atoms: O54_5970  and  C53_5969 
REMARK       I    between atoms: O54_5970  and  S55_5971 
REMARK       I    between atoms: O5A_5976  and  C59_5975 
REMARK       I    between atoms: O5A_5976  and  S5B_5977 
REMARK       I    between atoms: C40_5949  and  O3M_5948 
REMARK       I    between atoms: C1K_5910  and  O1L_5911 
REMARK       I    between atoms: S3B_5937  and  O3A_5936 
REMARK       I    between atoms: O3G_5942  and  C3F_5941 
REMARK       I    between atoms: O3G_5942  and  S3H_5943 
REMARK       I    between atoms: C20_5912  and  O1L_5911 
REMARK       I    between atoms: C50_5966  and  O4G_5965 
REMARK       I    between atoms: C39_5935  and  O3A_5936 
REMARK       I    between atoms: C46_5955  and  O47_5956 
REMARK       I    between atoms: C49_5958  and  O4A_5959 
REMARK       I    between atoms: O2A_5922  and  C29_5921 
REMARK       I    between atoms: O5G_5982  and  S5H_5983 
REMARK       I    between atoms: O4A_5959  and  S4B_5960 
REMARK       I    between atoms: C53_5969  and  C51_5967 
REMARK       I    between atoms: C43_5952  and  C41_5950 
REMARK       I    between atoms: S35_5931  and  O34_5930 
REMARK       I    between atoms: O3M_5948  and  C3L_5947 
REMARK       I    between atoms: O4G_5965  and  C4F_5964 
REMARK       I    between atoms: C26_5918  and  O27_5919 
ROOT
HETATM    1  C31 NTP I 433      25.577   8.326  -5.959  1.00 31.03     0.179 C 
HETATM    2  O2D NTP I 433      24.744   9.235  -8.023  1.00 32.01    -0.326 OA
HETATM    3  O1C NTP I 433      28.312   7.320 -16.682  1.00 41.41    -0.349 OA
HETATM    4  C5L NTP I 433      16.845   9.990   0.123  1.00 31.88     0.268 C 
HETATM    5  C5N NTP I 433      16.216   9.310   2.276  1.00 34.62     0.177 C 
HETATM    6  O45 NTP I 433      21.488   9.805  -4.811  1.00 30.69    -0.646 OA
HETATM    7  O10 NTP I 433      28.368  10.153 -16.667  1.00 39.55    -0.349 OA
HETATM    8  C13 NTP I 433      26.241  10.237 -15.543  1.00 35.72     0.179 C 
HETATM    9  C21 NTP I 433      26.477   9.702 -11.175  1.00 34.44     0.234 C 
HETATM   10  C1D NTP I 433      29.025   6.297 -15.980  1.00 41.52     0.174 C 
HETATM   11  O16 NTP I 433      24.888  12.297 -15.639  1.00 35.79    -0.235 OA
HETATM   12  O3I NTP I 433      26.559  14.000  -3.017  1.00 35.36    -0.572 OA
HETATM   13  S1G NTP I 433      25.957   5.050 -15.477  1.00 39.53     0.252 S 
HETATM   14  C33 NTP I 433      26.191   7.083  -6.609  1.00 32.41     0.198 C 
HETATM   15  C1E NTP I 433      26.253   7.383 -15.377  1.00 37.73     0.223 C 
HETATM   16  O58 NTP I 433      20.996  14.474   0.109  1.00 35.41    -0.572 OA
HETATM   17  C5F NTP I 433      17.218   9.501  -1.276  1.00 30.46     0.224 C 
HETATM   18  O1H NTP I 433      26.593   4.924 -16.829  1.00 40.80    -0.572 OA
HETATM   19  O54 NTP I 433      20.307  12.238   0.606  1.00 33.09    -0.235 OA
HETATM   20  O18 NTP I 433      22.945  12.692 -16.970  1.00 29.95    -0.572 OA
HETATM   21  O5A NTP I 433      18.903   8.285  -2.515  1.00 31.65    -0.235 OA
HETATM   22  O5M NTP I 433      16.641   8.861   0.986  1.00 33.96    -0.326 OA
HETATM   23  C15 NTP I 433      25.751  11.425 -16.375  1.00 36.03     0.198 C 
HETATM   24  C11 NTP I 433      28.284  10.880 -17.896  1.00 42.33     0.174 C 
HETATM   25  C2C NTP I 433      25.400   8.830  -9.236  1.00 32.21     0.267 C 
HETATM   26  O57 NTP I 433      20.644  13.765   2.425  1.00 36.25    -0.572 OA
HETATM   27  C40 NTP I 433      23.949   8.696  -2.871  1.00 29.43     0.185 C 
HETATM   28  O36 NTP I 433      27.896   6.157  -8.978  1.00 37.64    -0.572 OA
HETATM   29  C1K NTP I 433      25.470   8.271 -14.409  1.00 36.69     0.268 C 
HETATM   30  S3B NTP I 433      24.496  12.742  -7.422  1.00 28.99     0.252 S 
HETATM   31  O3G NTP I 433      25.694  12.155  -4.271  1.00 32.02    -0.233 OA
HETATM   32  S5B NTP I 433      19.043   6.866  -2.654  1.00 31.67     0.252 S 
HETATM   33  O3K NTP I 433      26.361  11.787  -2.000  1.00 33.48    -0.572 OA
HETATM   34  O4E NTP I 433      24.374   7.097   1.549  1.00 30.70    -0.572 OA
HETATM   35  O52 NTP I 433      17.901  10.814   0.639  1.00 31.42    -0.326 OA
HETATM   36  C20 NTP I 433      25.565   8.931 -12.116  1.00 34.31     0.185 C 
HETATM   37  O3J NTP I 433      28.037  12.192  -3.740  1.00 35.68    -0.572 OA
HETATM   38  C50 NTP I 433      19.610   9.557  -0.575  1.00 28.98     0.179 C 
HETATM   39  O5D NTP I 433      19.161   6.529  -4.111  1.00 31.22    -0.572 OA
HETATM   40  C39 NTP I 433      25.287  10.809  -6.250  1.00 30.20     0.201 C 
HETATM   41  O5E NTP I 433      17.845   6.163  -2.084  1.00 29.21    -0.572 OA
HETATM   42  O38 NTP I 433      29.798   6.658  -7.521  1.00 34.22    -0.572 OA
HETATM   43  O3C NTP I 433      23.903  13.281  -6.153  1.00 27.24    -0.572 OA
HETATM   44  C46 NTP I 433      24.361   9.099  -1.462  1.00 29.62     0.179 C 
HETATM   45  O5K NTP I 433      14.087   8.649  -2.993  1.00 28.61    -0.572 OA
HETATM   46  O56 NTP I 433      22.545  12.895   1.156  1.00 35.19    -0.572 OA
HETATM   47  O1F NTP I 433      26.562   6.131 -14.759  1.00 38.04    -0.233 OA
HETATM   48  C49 NTP I 433      23.245   8.796  -0.451  1.00 29.14     0.223 C 
HETATM   49  O2A NTP I 433      24.034   6.835  -9.428  1.00 32.22    -0.346 OA
HETATM   50  O5G NTP I 433      16.151   8.697  -1.790  1.00 31.36    -0.233 OA
HETATM   51  S3H NTP I 433      26.650  12.525  -3.273  1.00 31.66     0.252 S 
HETATM   52  O47 NTP I 433      25.528   8.335  -1.126  1.00 29.56    -0.349 OA
HETATM   53  O5J NTP I 433      14.944  10.754  -2.080  1.00 30.87    -0.572 OA
HETATM   54  O4A NTP I 433      23.652   9.273   0.837  1.00 30.65    -0.233 OA
HETATM   55  C29 NTP I 433      24.417   8.048 -10.096  1.00 33.03     0.201 C 
HETATM   56  C48 NTP I 433      26.283   8.990  -0.102  1.00 30.67     0.174 C 
HETATM   57  C53 NTP I 433      20.172  11.044   1.382  1.00 30.79     0.198 C 
HETATM   58  C51 NTP I 433      19.139  10.095   0.769  1.00 31.94     0.179 C 
HETATM   59  C43 NTP I 433      22.034   8.743  -4.434  1.00 31.01     0.216 C 
HETATM   60  O22 NTP I 433      25.797  10.012  -9.948  1.00 33.49    -0.318 OA
HETATM   61  S35 NTP I 433      28.346   6.283  -7.553  1.00 37.39     0.252 S 
HETATM   62  O4D NTP I 433      24.045   8.912   3.158  1.00 32.92    -0.572 OA
HETATM   63  C23 NTP I 433      26.888  11.007 -11.860  1.00 35.92     0.216 C 
HETATM   64  O37 NTP I 433      28.140   4.977  -6.846  1.00 36.19    -0.572 OA
HETATM   65  O25 NTP I 433      28.083  11.157 -12.180  1.00 36.52    -0.646 OA
HETATM   66  O1I NTP I 433      24.487   5.308 -15.642  1.00 40.45    -0.572 OA
HETATM   67  S55 NTP I 433      21.112  13.328   1.069  1.00 35.51     0.252 S 
HETATM   68  C28 NTP I 433      23.946   5.658 -11.867  1.00 37.48     0.174 C 
HETATM   69  C12 NTP I 433      27.159   9.415 -16.437  1.00 38.19     0.175 C 
HETATM   70  S5H NTP I 433      15.324   9.441  -2.694  1.00 30.36     0.252 S 
HETATM   71  O3M NTP I 433      24.371   9.701  -3.808  1.00 28.44    -0.326 OA
HETATM   72  O42 NTP I 433      21.907   9.765  -2.256  1.00 30.07    -0.318 OA
HETATM   73  O4G NTP I 433      20.816   8.798  -0.406  1.00 28.10    -0.326 OA
HETATM   74  O3A NTP I 433      25.614  11.898  -7.120  1.00 30.09    -0.235 OA
HETATM   75  O14 NTP I 433      25.103   9.473 -15.107  1.00 35.16    -0.326 OA
HETATM   76  C59 NTP I 433      18.512   8.686  -1.200  1.00 29.84     0.201 C 
HETATM   77  O1L NTP I 433      26.316   8.588 -13.291  1.00 34.53    -0.326 OA
HETATM   78  O1J NTP I 433      26.151   3.774 -14.714  1.00 40.28    -0.572 OA
HETATM   79  O3E NTP I 433      23.448  11.967  -8.161  1.00 26.68    -0.572 OA
HETATM   80  C3F NTP I 433      26.080  10.953  -4.947  1.00 30.30     0.224 C 
HETATM   81  C4F NTP I 433      21.967   9.542  -0.839  1.00 28.77     0.268 C 
HETATM   82  O5I NTP I 433      16.077   9.685  -3.969  1.00 30.28    -0.572 OA
HETATM   83  O1A NTP I 433      23.702  14.348 -15.329  1.00 33.83    -0.572 OA
HETATM   84  O44 NTP I 433      22.276   7.780  -5.189  1.00 28.79    -0.646 OA
HETATM   85  C3L NTP I 433      25.785   9.749  -4.051  1.00 29.96     0.268 C 
HETATM   86  O24 NTP I 433      25.992  11.860 -12.064  1.00 36.67    -0.646 OA
HETATM   87  C2B NTP I 433      23.053   7.092  -8.420  1.00 32.76     0.175 C 
HETATM   88  O4C NTP I 433      22.113   7.885   2.063  1.00 31.11    -0.572 OA
HETATM   89  C1B NTP I 433      27.544   8.109 -15.762  1.00 38.14     0.179 C 
HETATM   90  C30 NTP I 433      25.653   9.489  -6.938  1.00 31.19     0.179 C 
HETATM   91  O32 NTP I 433      26.254   8.564  -4.713  1.00 30.48    -0.326 OA
HETATM   92  C26 NTP I 433      25.083   7.673 -11.411  1.00 33.14     0.178 C 
HETATM   93  S17 NTP I 433      24.146  13.313 -16.321  1.00 32.45     0.252 S 
HETATM   94  O27 NTP I 433      24.124   7.022 -12.257  1.00 35.49    -0.349 OA
HETATM   95  O34 NTP I 433      27.576   7.297  -6.896  1.00 34.59    -0.235 OA
HETATM   96  O5C NTP I 433      20.279   6.408  -1.941  1.00 34.23    -0.572 OA
HETATM   97  O3D NTP I 433      24.977  13.881  -8.271  1.00 27.40    -0.572 OA
HETATM   98  S4B NTP I 433      23.543   8.301   1.883  1.00 32.81     0.252 S 
HETATM   99  O19 NTP I 433      25.004  13.964 -17.364  1.00 30.75    -0.572 OA
HETATM  100  C41 NTP I 433      22.433   8.631  -2.960  1.00 28.95     0.234 C 
ENDROOT
TORSDOF 37
