REMARK  0 active torsions:
REMARK  status: ('A' for Active; 'I' for Inactive)
REMARK       I    between atoms: N_5390  and  C2_5385 
REMARK       I    between atoms: N_5390  and  S1_5395 
REMARK       I    between atoms: C5_5388  and  C6_5389 
REMARK       I    between atoms: O4_5392  and  C1_5368 
REMARK       I    between atoms: O4_5392  and  C4_5387 
REMARK       I    between atoms: O6_5394  and  C6_5389 
REMARK       I    between atoms: O6_5394  and  S2_5399 
REMARK       I    between atoms: O4_5411  and  C1_5384 
REMARK       I    between atoms: N_5425  and  C2_5420 
REMARK       I    between atoms: N_5425  and  S1_5430 
REMARK       I    between atoms: S2_5434  and  O6_5429 
REMARK       I    between atoms: O6_5429  and  C6_5424 
REMARK       I    between atoms: C5_5423  and  C6_5424 
REMARK       I    between atoms: C1_5403  and  O4_5427 
REMARK       I    between atoms: O4_5427  and  C4_5422 
REMARK       I    between atoms: C5_5353  and  C6_5354 
REMARK       I    between atoms: C1_5334  and  O4_5357 
REMARK       I    between atoms: O4_5357  and  C4_5352 
REMARK       I    between atoms: C6_5354  and  O6_5359 
REMARK       I    between atoms: S1_5360  and  N_5355 
REMARK       I    between atoms: N_5355  and  C2_5350 
REMARK       I    between atoms: O6_5359  and  S2_5364 
REMARK       I    between atoms: O4_5376  and  C1_5349 
REMARK       I    between atoms: O4_5376  and  C4_5371 
REMARK       I    between atoms: S_5380  and  O2_5374 
REMARK       I    between atoms: O2_5374  and  C2_5369 
REMARK       I    between atoms: C5_5372  and  C6_5373 
REMARK       I    between atoms: C5_5338  and  C6_5339 
REMARK       I    between atoms: C2_5335  and  O2_5340 
REMARK       I    between atoms: O2_5340  and  S_5345 
REMARK       I    between atoms: C5_5407  and  C6_5408 
REMARK       I    between atoms: O2_5409  and  C2_5404 
REMARK       I    between atoms: O2_5409  and  S_5415 
REMARK       I    between atoms: O4_5411  and  C4_5406 
ROOT
HETATM    1  N   SGN A 304      21.329  14.862  12.921  1.00 79.84    -0.162 NA
HETATM    2  O2S SGN A 304      19.987  16.643  14.028  1.00 78.12    -0.577 OA
HETATM    3  C5  SGN A 304      18.380  14.166  10.042  1.00 80.54     0.179 C 
HETATM    4  O5S SGN A 304      14.635  13.558   8.532  1.00 80.20    -0.572 OA
HETATM    5  O3  SGN A 304      20.401  12.124  12.459  1.00 81.00    -0.218 OA
HETATM    6  C3  SGN A 304      20.139  13.170  11.542  1.00 80.54     0.210 C 
HETATM    7  O4  SGN A 304      18.550  11.725  10.377  1.00 79.74    -0.326 OA
HETATM    8  O5  SGN A 304      18.544  15.421  10.674  1.00 81.03    -0.327 OA
HETATM    9  C4  SGN A 304      18.699  13.020  11.030  1.00 80.37     0.180 C 
HETATM   10  O4S SGN A 304      14.652  15.749   7.302  1.00 79.48    -0.572 OA
HETATM   11  O6S SGN A 304      14.137  15.606   9.633  1.00 79.64    -0.572 OA
HETATM   12  O6  SGN A 304      16.460  15.118   8.736  1.00 79.92    -0.235 OA
HETATM   13  C6  SGN A 304      16.875  14.089   9.623  1.00 80.29     0.198 C 
HETATM   14  C2  SGN A 304      20.106  14.542  12.272  1.00 80.75     0.207 C 
HETATM   15  O3S SGN A 304      20.242  14.537  15.205  1.00 79.40    -0.577 OA
HETATM   16  C1  SGN A 304      19.878  15.653  11.246  1.00 81.37     0.263 C 
HETATM   17  O1S SGN A 304      22.229  15.881  14.987  1.00 79.33    -0.577 OA
HETATM   18  S1  SGN A 304      20.974  15.589  14.357  1.00 79.04     0.227 S 
HETATM   19  S2  SGN A 304      14.920  14.971   8.480  1.00 79.24     0.252 S 
HETATM   20  O6S SGN A 306      25.449  13.224   5.125  1.00 90.76    -0.572 OA
HETATM   21  O5S SGN A 306      27.704  13.877   5.737  1.00 90.75    -0.572 OA
HETATM   22  O2S SGN A 306      21.400  20.178   3.811  1.00 94.45    -0.577 OA
HETATM   23  C1  SGN A 306      24.446  18.911   4.399  1.00 91.31     0.170 C 
HETATM   24  N   SGN A 306      23.306  20.864   5.172  1.00 92.99    -0.165 NA
HETATM   25  O3  SGN A 306      23.211  19.979   7.747  1.00 90.61    -0.218 OA
HETATM   26  S2  SGN A 306      26.664  14.089   4.730  1.00 90.49     0.252 S 
HETATM   27  C3  SGN A 306      24.113  19.371   6.813  1.00 90.37     0.207 C 
HETATM   28  O3S SGN A 306      20.916  20.778   6.124  1.00 94.25    -0.577 OA
HETATM   29  O4S SGN A 306      26.904  13.904   3.320  1.00 90.40    -0.572 OA
HETATM   30  O5  SGN A 306      24.676  17.518   4.652  1.00 90.75    -0.349 OA
HETATM   31  S1  SGN A 306      21.734  21.180   4.855  1.00 94.56     0.227 S 
HETATM   32  O6  SGN A 306      26.318  15.571   4.875  1.00 90.28    -0.235 OA
HETATM   33  C2  SGN A 306      23.529  19.497   5.448  1.00 91.31     0.181 C 
HETATM   34  C5  SGN A 306      25.242  17.319   5.966  1.00 89.86     0.176 C 
HETATM   35  C6  SGN A 306      25.483  15.816   6.047  1.00 90.07     0.198 C 
HETATM   36  O1S SGN A 306      21.666  22.630   4.617  1.00 94.36    -0.577 OA
HETATM   37  O4  SGN A 306      24.842  17.700   8.470  1.00 87.19    -0.326 OA
HETATM   38  C4  SGN A 306      24.297  17.872   7.085  1.00 89.27     0.180 C 
HETATM   39  O6S SGN A 302      17.586   3.297  16.801  1.00 85.02    -0.572 OA
HETATM   40  O2S SGN A 302      16.654   6.104   9.028  1.00 78.33    -0.577 OA
HETATM   41  O5S SGN A 302      16.389   4.905  18.169  1.00 85.10    -0.572 OA
HETATM   42  C5  SGN A 302      15.494   5.996  14.260  1.00 82.77     0.179 C 
HETATM   43  O4  SGN A 302      13.227   5.429  14.925  1.00 83.55    -0.326 OA
HETATM   44  O3  SGN A 302      12.440   5.736  12.062  1.00 81.26    -0.218 OA
HETATM   45  C6  SGN A 302      15.980   5.225  15.502  1.00 83.42     0.198 C 
HETATM   46  S1  SGN A 302      15.243   6.173   8.755  1.00 78.12     0.227 S 
HETATM   47  N   SGN A 302      14.460   6.672  10.175  1.00 79.15    -0.162 NA
HETATM   48  O4S SGN A 302      18.875   5.105  17.628  1.00 85.50    -0.572 OA
HETATM   49  O6  SGN A 302      17.195   5.693  16.027  1.00 84.53    -0.235 OA
HETATM   50  O5  SGN A 302      16.512   5.908  13.187  1.00 81.91    -0.327 OA
HETATM   51  C4  SGN A 302      14.164   5.398  13.794  1.00 82.49     0.180 C 
HETATM   52  S2  SGN A 302      17.532   4.767  17.249  1.00 85.06     0.252 S 
HETATM   53  C1  SGN A 302      16.129   6.516  11.883  1.00 80.88     0.263 C 
HETATM   54  C2  SGN A 302      14.751   6.009  11.444  1.00 80.47     0.207 C 
HETATM   55  O1S SGN A 302      14.710   7.050   7.748  1.00 78.49    -0.577 OA
HETATM   56  C3  SGN A 302      13.686   6.226  12.544  1.00 81.29     0.210 C 
HETATM   57  O3S SGN A 302      14.894   4.735   8.406  1.00 78.46    -0.577 OA
HETATM   58  O5  IDS A 303      16.751  10.814  11.773  1.00 79.53    -0.318 OA
HETATM   59  O2S IDS A 303      16.167  11.562   7.479  1.00 75.45    -0.572 OA
HETATM   60  O4  IDS A 303      16.161   7.951  11.813  1.00 80.21    -0.326 OA
HETATM   61  O1S IDS A 303      14.027  10.247   7.471  1.00 74.87    -0.572 OA
HETATM   62  C4  IDS A 303      17.490   8.460  11.687  1.00 79.54     0.189 C 
HETATM   63  S   IDS A 303      15.436  10.321   7.637  1.00 75.24     0.252 S 
HETATM   64  O2  IDS A 303      15.750   9.793   9.144  1.00 77.12    -0.233 OA
HETATM   65  O3  IDS A 303      19.353   9.089  10.334  1.00 79.40    -0.218 OA
HETATM   66  O61 IDS A 303      16.003  10.070  14.360  1.00 78.58    -0.646 OA
HETATM   67  C2  IDS A 303      17.209   9.923   9.463  1.00 78.83     0.226 C 
HETATM   68  C1  IDS A 303      17.248  11.137  10.404  1.00 79.12     0.269 C 
HETATM   69  O3S IDS A 303      16.025   9.352   6.603  1.00 74.74    -0.572 OA
HETATM   70  C3  IDS A 303      17.975   8.695  10.210  1.00 79.21     0.216 C 
HETATM   71  C5  IDS A 303      17.543   9.777  12.474  1.00 79.41     0.234 C 
HETATM   72  O62 IDS A 303      17.585   8.553  14.662  1.00 79.10    -0.646 OA
HETATM   73  C6  IDS A 303      16.991   9.485  13.911  1.00 79.11     0.216 C 
HETATM   74  C1  UAP A 301      12.655   6.584  15.510  1.00 84.88     0.273 C 
HETATM   75  C5  UAP A 301      10.534   7.646  15.696  1.00 86.05     0.159 C 
HETATM   76  O61 UAP A 301       8.497   8.904  15.430  1.00 86.98    -0.642 OA
HETATM   77  C2  UAP A 301      12.618   6.330  17.085  1.00 85.96     0.228 C 
HETATM   78  O62 UAP A 301       9.074   7.615  13.675  1.00 86.30    -0.642 OA
HETATM   79  O3  UAP A 301      13.041   8.684  17.756  1.00 85.74    -0.216 OA
HETATM   80  O5  UAP A 301      11.308   6.761  15.006  1.00 85.36    -0.298 OA
HETATM   81  C6  UAP A 301       9.304   8.105  14.938  1.00 86.44     0.234 C 
HETATM   82  O2  UAP A 301      11.742   5.150  17.455  1.00 86.85    -0.232 OA
HETATM   83  C3  UAP A 301      12.029   7.642  17.753  1.00 86.07     0.210 C 
HETATM   84  O2S UAP A 301      13.585   3.647  16.828  1.00 87.22    -0.572 OA
HETATM   85  C4  UAP A 301      10.783   8.114  16.952  1.00 86.06     0.039 C 
HETATM   86  O3S UAP A 301      13.427   4.217  19.206  1.00 87.06    -0.572 OA
HETATM   87  O1S UAP A 301      11.685   2.791  18.292  1.00 87.03    -0.572 OA
HETATM   88  S   UAP A 301      12.614   3.858  17.923  1.00 87.43     0.252 S 
HETATM   89  C5  IDS A 305      22.227  16.305   8.304  1.00 84.02     0.234 C 
HETATM   90  O2  IDS A 305      23.751  15.934  11.597  1.00 83.50    -0.233 OA
HETATM   91  C6  IDS A 305      21.383  15.345   7.492  1.00 83.86     0.216 C 
HETATM   92  O61 IDS A 305      21.786  14.203   7.241  1.00 83.41    -0.646 OA
HETATM   93  O2S IDS A 305      26.191  16.100  11.859  1.00 82.88    -0.572 OA
HETATM   94  O62 IDS A 305      20.196  15.768   7.032  1.00 83.79    -0.646 OA
HETATM   95  O5  IDS A 305      23.494  15.649   8.675  1.00 84.77    -0.318 OA
HETATM   96  C3  IDS A 305      22.378  17.726  10.457  1.00 84.12     0.216 C 
HETATM   97  O4  IDS A 305      21.028  15.545  10.291  1.00 82.67    -0.326 OA
HETATM   98  O1S IDS A 305      24.817  14.831  13.501  1.00 82.82    -0.572 OA
HETATM   99  C2  IDS A 305      23.811  17.093  10.714  1.00 84.31     0.226 C 
HETATM  100  C1  IDS A 305      24.411  16.586   9.356  1.00 85.34     0.269 C 
HETATM  101  C4  IDS A 305      21.442  16.750   9.590  1.00 83.74     0.189 C 
HETATM  102  O3  IDS A 305      22.604  18.883   9.676  1.00 84.46    -0.218 OA
HETATM  103  S   IDS A 305      24.969  15.977  12.641  1.00 82.88     0.252 S 
HETATM  104  O3S IDS A 305      24.814  17.259  13.488  1.00 82.83    -0.572 OA
ENDROOT
TORSDOF 34
