REMARK  0 active torsions:
REMARK  status: ('A' for Active; 'I' for Inactive)
REMARK       I    between atoms: C2_4206  and  N_4215 
REMARK       I    between atoms: O6_4214  and  C6_4210 
REMARK       I    between atoms: O6_4214  and  S_4219 
REMARK       I    between atoms: N_4215  and  C_4216 
REMARK       I    between atoms: C6_4210  and  C5_4209 
REMARK       I    between atoms: C1_4205  and  O4_4231 
REMARK       I    between atoms: C1_4223  and  O4_4243 
REMARK       I    between atoms: C4_4226  and  O4_4231 
REMARK       I    between atoms: C6_4228  and  C5_4227 
REMARK       I    between atoms: C2_4271  and  N_4276 
REMARK       I    between atoms: C6_4275  and  C5_4274 
REMARK       I    between atoms: C6_4275  and  O6_4280 
REMARK       I    between atoms: S2_4285  and  O6_4280 
REMARK       I    between atoms: O4_4278  and  C1_4254 
REMARK       I    between atoms: O4_4278  and  C4_4273 
REMARK       I    between atoms: N_4276  and  S1_4281 
REMARK       I    between atoms: O4_4297  and  C1_4270 
REMARK       I    between atoms: C5_4258  and  C6_4259 
REMARK       I    between atoms: C4_4257  and  O4_4262 
REMARK       I    between atoms: O4_4262  and  C1_4235 
REMARK       I    between atoms: S_4266  and  O2_4260 
REMARK       I    between atoms: O2_4260  and  C2_4255 
REMARK       I    between atoms: O6_4245  and  C6_4240 
REMARK       I    between atoms: O6_4245  and  S2_4250 
REMARK       I    between atoms: S1_4246  and  N_4241 
REMARK       I    between atoms: O4_4243  and  C4_4238 
REMARK       I    between atoms: C6_4240  and  C5_4239 
REMARK       I    between atoms: N_4241  and  C2_4236 
REMARK       I    between atoms: C4_4292  and  O4_4297 
REMARK       I    between atoms: C6_4294  and  C5_4293 
ROOT
HETATM    1  O   NGY A   1      22.007  14.938  48.946  1.00 46.19    -0.271 OA
HETATM    2  C4  NGY A   1      22.886  11.733  45.749  1.00 37.06     0.214 C 
HETATM    3  C3  NGY A   1      21.980  12.886  46.004  1.00 39.13     0.212 C 
HETATM    4  C2  NGY A   1      21.402  12.739  47.368  1.00 39.33     0.195 C 
HETATM    5  O6  NGY A   1      24.059   9.247  46.301  1.00 36.15    -0.235 OA
HETATM    6  S   NGY A   1      24.799   7.977  46.475  1.00 34.85     0.252 S 
HETATM    7  N   NGY A   1      20.501  13.824  47.610  1.00 39.90    -0.232 NA
HETATM    8  O4  NGY A   1      23.418  11.840  44.484  1.00 37.39    -0.218 OA
HETATM    9  C6  NGY A   1      22.888   9.268  45.567  1.00 31.91     0.198 C 
HETATM   10  O3  NGY A   1      22.675  14.072  45.904  1.00 44.02    -0.218 OA
HETATM   11  O8  NGY A   1      23.849   7.051  47.090  1.00 30.21    -0.572 OA
HETATM   12  CH3 NGY A   1      19.936  16.039  48.673  1.00 43.79     0.100 C 
HETATM   13  C   NGY A   1      20.895  14.920  48.437  1.00 44.73     0.252 C 
HETATM   14  O7  NGY A   1      25.246   7.477  45.201  1.00 33.41    -0.572 OA
HETATM   15  O5  NGY A   1      21.521  10.418  47.121  1.00 32.46    -0.327 OA
HETATM   16  C1  NGY A   1      20.653  11.449  47.427  1.00 35.33     0.262 C 
HETATM   17  O9  NGY A   1      25.939   8.208  47.330  1.00 38.01    -0.572 OA
HETATM   18  C5  NGY A   1      22.069  10.487  45.857  1.00 32.98     0.182 C 
HETATM   19  O6B BDP A   2      18.554   8.430  45.062  1.00 26.46    -0.646 OA
HETATM   20  O6A BDP A   2      18.528  10.055  43.617  1.00 32.10    -0.646 OA
HETATM   21  C1  BDP A   2      15.563  10.840  46.835  1.00 28.36     0.270 C 
HETATM   22  O3  BDP A   2      18.254  11.604  49.179  1.00 34.34    -0.218 OA
HETATM   23  C4  BDP A   2      18.404  10.804  46.968  1.00 31.81     0.189 C 
HETATM   24  C2  BDP A   2      16.253  11.041  48.150  1.00 31.13     0.241 C 
HETATM   25  C6  BDP A   2      18.256   9.615  44.762  1.00 29.31     0.216 C 
HETATM   26  O5  BDP A   2      16.325   9.946  46.100  1.00 24.75    -0.318 OA
HETATM   27  C5  BDP A   2      17.559  10.500  45.751  1.00 27.14     0.234 C 
HETATM   28  C3  BDP A   2      17.617  11.603  47.952  1.00 33.85     0.217 C 
HETATM   29  O2  BDP A   2      15.535  11.914  48.954  1.00 34.37    -0.215 OA
HETATM   30  O4  BDP A   2      19.510  11.541  46.545  1.00 33.34    -0.326 OA
HETATM   31  C2  SGN A   5       5.891  14.580  51.981  1.00 38.29     0.207 C 
HETATM   32  C6  SGN A   5       3.523  11.866  49.618  1.00 42.92     0.198 C 
HETATM   33  O1S SGN A   5       7.335  17.703  53.686  1.00 53.59    -0.577 OA
HETATM   34  S2  SGN A   5       2.656   9.627  50.562  1.00 56.56     0.252 S 
HETATM   35  O3  SGN A   5       7.843  13.948  50.740  1.00 37.94    -0.218 OA
HETATM   36  O4  SGN A   5       6.196  12.844  48.665  1.00 35.63    -0.326 OA
HETATM   37  N   SGN A   5       6.402  15.907  52.271  1.00 38.07    -0.162 NA
HETATM   38  C5  SGN A   5       4.271  13.087  50.144  1.00 39.12     0.179 C 
HETATM   39  C3  SGN A   5       6.458  14.169  50.620  1.00 36.01     0.210 C 
HETATM   40  O5S SGN A   5       2.507   9.033  49.239  1.00 53.95    -0.572 OA
HETATM   41  S1  SGN A   5       6.654  16.415  53.766  1.00 51.36     0.227 S 
HETATM   42  O6S SGN A   5       3.155   8.641  51.511  1.00 54.13    -0.572 OA
HETATM   43  O5  SGN A   5       3.893  13.336  51.495  1.00 40.44    -0.327 OA
HETATM   44  O4S SGN A   5       1.415  10.249  51.020  1.00 58.52    -0.572 OA
HETATM   45  O2S SGN A   5       5.344  16.559  54.394  1.00 50.52    -0.577 OA
HETATM   46  C4  SGN A   5       5.787  12.936  50.024  1.00 34.14     0.180 C 
HETATM   47  O6  SGN A   5       3.730  10.761  50.470  1.00 46.75    -0.235 OA
HETATM   48  C1  SGN A   5       4.362  14.580  51.976  1.00 40.25     0.263 C 
HETATM   49  O3S SGN A   5       7.478  15.389  54.397  1.00 54.39    -0.577 OA
HETATM   50  C5  IDS A   4       8.816  12.004  48.345  1.00 31.73     0.234 C 
HETATM   51  C4  IDS A   4       9.050  11.961  46.859  1.00 32.57     0.189 C 
HETATM   52  O4  IDS A   4       9.788  10.835  46.485  1.00 24.52    -0.326 OA
HETATM   53  C3  IDS A   4       7.746  12.063  46.118  1.00 36.22     0.216 C 
HETATM   54  S   IDS A   4       5.207   9.494  45.990  1.00 46.67     0.252 S 
HETATM   55  O61 IDS A   4      10.974  12.517  49.242  1.00 34.35    -0.646 OA
HETATM   56  O2  IDS A   4       6.506  10.045  46.419  1.00 41.30    -0.233 OA
HETATM   57  O62 IDS A   4      10.254  10.474  49.481  1.00 34.80    -0.646 OA
HETATM   58  O2S IDS A   4       5.406   8.047  45.835  1.00 43.53    -0.572 OA
HETATM   59  O5  IDS A   4       7.840  11.117  48.737  1.00 29.95    -0.318 OA
HETATM   60  O3  IDS A   4       7.425  13.400  45.985  1.00 35.64    -0.218 OA
HETATM   61  C6  IDS A   4      10.080  11.650  49.063  1.00 33.29     0.216 C 
HETATM   62  C2  IDS A   4       6.573  11.378  46.785  1.00 37.49     0.226 C 
HETATM   63  C1  IDS A   4       6.605  11.509  48.277  1.00 32.35     0.269 C 
HETATM   64  O3S IDS A   4       4.193   9.742  46.986  1.00 50.85    -0.572 OA
HETATM   65  O1S IDS A   4       4.802  10.098  44.746  1.00 45.84    -0.572 OA
HETATM   66  O6  SGN A   3      13.930  13.491  45.331  1.00 33.38    -0.235 OA
HETATM   67  S1  SGN A   3       9.546   8.599  43.315  1.00 23.01     0.227 S 
HETATM   68  C3  SGN A   3      12.428   9.488  45.764  1.00 24.72     0.210 C 
HETATM   69  O3S SGN A   3       8.848   7.318  43.392  1.00 24.34    -0.577 OA
HETATM   70  O4  SGN A   3      14.207  10.394  47.048  1.00 25.89    -0.326 OA
HETATM   71  O3  SGN A   3      13.182   8.410  45.244  1.00 24.01    -0.218 OA
HETATM   72  O5  SGN A   3      11.448  12.132  45.367  1.00 24.61    -0.327 OA
HETATM   73  C6  SGN A   3      13.246  13.171  46.522  1.00 29.42     0.198 C 
HETATM   74  C1  SGN A   3      10.520  11.071  45.255  1.00 25.95     0.263 C 
HETATM   75  O6S SGN A   3      15.914  14.526  46.295  1.00 40.27    -0.572 OA
HETATM   76  O1S SGN A   3       8.636   9.730  43.295  1.00 23.82    -0.577 OA
HETATM   77  C4  SGN A   3      13.324  10.698  45.978  1.00 24.11     0.180 C 
HETATM   78  O5S SGN A   3      14.003  15.866  45.757  1.00 42.87    -0.572 OA
HETATM   79  O2S SGN A   3      10.460   8.659  42.179  1.00 21.15    -0.577 OA
HETATM   80  N   SGN A   3      10.419   8.682  44.650  1.00 24.47    -0.162 NA
HETATM   81  S2  SGN A   3      14.850  14.763  45.327  1.00 42.75     0.252 S 
HETATM   82  C5  SGN A   3      12.440  11.890  46.347  1.00 25.01     0.179 C 
HETATM   83  O4S SGN A   3      15.364  14.931  43.974  1.00 44.95    -0.572 OA
HETATM   84  C2  SGN A   3      11.295   9.830  44.801  1.00 24.33     0.207 C 
HETATM   85  O3  BDP A   6       2.680  16.519  53.671  1.00 52.92    -0.218 OA
HETATM   86  C4  BDP A   6       2.552  15.972  51.391  1.00 48.48     0.188 C 
HETATM   87  C6  BDP A   6       1.943  15.330  49.055  1.00 51.57     0.216 C 
HETATM   88  C2  BDP A   6       1.043  17.621  52.447  1.00 53.01     0.214 C 
HETATM   89  O5  BDP A   6       0.656  16.870  50.276  1.00 54.15    -0.341 OA
HETATM   90  C5  BDP A   6       1.956  16.422  50.082  1.00 51.87     0.232 C 
HETATM   91  O6A BDP A   6       2.831  15.298  48.164  1.00 52.65    -0.646 OA
HETATM   92  C3  BDP A   6       2.416  17.044  52.421  1.00 51.01     0.215 C 
HETATM   93  O2  BDP A   6       1.044  18.761  53.227  1.00 53.19    -0.218 OA
HETATM   94  O4  BDP A   6       3.897  15.702  51.191  1.00 42.04    -0.326 OA
HETATM   95  C1  BDP A   6       0.580  17.988  51.080  1.00 54.14     0.178 C 
HETATM   96  O6B BDP A   6       1.040  14.451  49.079  1.00 51.09    -0.646 OA
ENDROOT
TORSDOF 29
