REMARK  0 active torsions:
REMARK  status: ('A' for Active; 'I' for Inactive)
REMARK       I    between atoms: C6_3075  and  C5_3074 
REMARK       I    between atoms: C6_3075  and  O6_3080 
REMARK       I    between atoms: S2_3085  and  O6_3080 
REMARK       I    between atoms: C1_3070  and  O4_3097 
REMARK       I    between atoms: C2_3071  and  N_3076 
REMARK       I    between atoms: N_3076  and  S1_3081 
REMARK       I    between atoms: C6_3100  and  C5_3098 
REMARK       I    between atoms: O4_3097  and  C4_3096 
REMARK       I    between atoms: C2_3092  and  O2_3093 
REMARK       I    between atoms: C1_3090  and  O1_3091 
REMARK       I    between atoms: O2_3093  and  S_3089 
ROOT
HETATM    1  O4S SGN B 141     -38.702 -10.458  16.366  1.00132.50    -0.572 OA
HETATM    2  C6  SGN B 141     -40.255  -8.358  19.011  1.00129.07     0.198 C 
HETATM    3  S2  SGN B 141     -38.934 -10.090  17.747  1.00146.71     0.252 S 
HETATM    4  O5  SGN B 141     -39.417  -6.388  18.088  1.00126.69    -0.327 OA
HETATM    5  C1  SGN B 141     -39.438  -4.987  17.886  1.00124.20     0.263 C 
HETATM    6  O1S SGN B 141     -41.426  -1.084  16.006  1.00115.15    -0.577 OA
HETATM    7  O3  SGN B 141     -43.169  -4.657  18.112  1.00112.12    -0.218 OA
HETATM    8  C3  SGN B 141     -41.837  -4.898  18.504  1.00115.74     0.213 C 
HETATM    9  O5S SGN B 141     -39.828 -11.001  18.410  1.00141.03    -0.572 OA
HETATM   10  O6S SGN B 141     -37.693  -9.942  18.496  1.00148.78    -0.572 OA
HETATM   11  O2S SGN B 141     -41.820  -3.266  15.210  1.00115.81    -0.577 OA
HETATM   12  C2  SGN B 141     -40.818  -4.485  17.460  1.00116.35     0.207 C 
HETATM   13  O6  SGN B 141     -39.694  -8.744  17.779  1.00128.35    -0.235 OA
HETATM   14  O4  SGN B 141     -42.611  -6.583  19.794  1.00122.86    -0.218 OA
HETATM   15  C4  SGN B 141     -41.739  -6.383  18.720  1.00119.46     0.214 C 
HETATM   16  C5  SGN B 141     -40.326  -6.849  19.049  1.00125.10     0.182 C 
HETATM   17  O3S SGN B 141     -39.612  -2.465  15.279  1.00113.14    -0.577 OA
HETATM   18  N   SGN B 141     -40.800  -3.050  17.329  1.00115.40    -0.162 NA
HETATM   19  S1  SGN B 141     -40.906  -2.412  15.892  1.00114.54     0.227 S 
HETATM   20  O3  IDY B 142     -36.177  -2.136  18.540  1.00138.87    -0.218 OA
HETATM   21  OS3 IDY B 142     -39.625   0.999  20.798  1.00125.53    -0.572 OA
HETATM   22  C6  IDY B 142     -38.525  -4.806  21.617  1.00136.77     0.216 C 
HETATM   23  OS1 IDY B 142     -41.574   0.357  19.443  1.00118.43    -0.572 OA
HETATM   24  C3  IDY B 142     -37.617  -2.365  18.828  1.00130.40     0.216 C 
HETATM   25  O4  IDY B 142     -39.044  -4.356  19.076  1.00125.32    -0.326 OA
HETATM   26  C7  IDY B 142     -35.673  -0.290  21.637  1.00130.19     0.177 C 
HETATM   27  C2  IDY B 142     -38.137  -1.163  19.549  1.00131.68     0.226 C 
HETATM   28  C5  IDY B 142     -37.773  -3.621  21.056  1.00136.54     0.234 C 
HETATM   29  C1  IDY B 142     -38.042  -1.250  21.050  1.00135.67     0.269 C 
HETATM   30  O2  IDY B 142     -39.523  -0.915  19.229  1.00126.27    -0.233 OA
HETATM   31  C4  IDY B 142     -37.785  -3.666  19.536  1.00131.28     0.189 C 
HETATM   32  OS2 IDY B 142     -39.643   1.365  18.413  1.00127.61    -0.572 OA
HETATM   33  S   IDY B 142     -40.107   0.456  19.484  1.00128.09     0.252 S 
HETATM   34  O5  IDY B 142     -38.439  -2.480  21.620  1.00136.95    -0.318 OA
HETATM   35  O62 IDY B 142     -39.848  -4.607  21.772  1.00130.75    -0.646 OA
HETATM   36  O61 IDY B 142     -37.849  -5.661  22.341  1.00141.30    -0.646 OA
HETATM   37  O1  IDY B 142     -37.000  -0.762  21.501  1.00117.49    -0.326 OA
ENDROOT
TORSDOF 11
