REMARK  0 active torsions:
REMARK  status: ('A' for Active; 'I' for Inactive)
REMARK       I    between atoms: O3_3057  and  C3_3056 
REMARK       I    between atoms: O3_3057  and  S3_3058 
REMARK       I    between atoms: C6_3063  and  C5_3061 
REMARK       I    between atoms: C6_3063  and  O6_3064 
REMARK       I    between atoms: N_3051  and  S1_3053 
REMARK       I    between atoms: N_3051  and  C2_3054 
REMARK       I    between atoms: S2_3055  and  O6_3064 
REMARK       I    between atoms: O4_3082  and  C1_3052 
REMARK       I    between atoms: C1_3075  and  O1_3076 
REMARK       I    between atoms: S_3074  and  O2_3078 
REMARK       I    between atoms: O4_3082  and  C4_3081 
REMARK       I    between atoms: C2_3077  and  O2_3078 
REMARK       I    between atoms: C6_3085  and  C5_3083 
ROOT
HETATM    1  O3  SUS B 141      -1.001  11.094  14.109  1.00102.73    -0.236 OA
HETATM    2  C6  SUS B 141      -0.924  15.534  16.171  1.00106.13     0.198 C 
HETATM    3  O3S SUS B 141      -3.385   7.977  17.133  1.00 99.62    -0.577 OA
HETATM    4  N   SUS B 141      -2.226  10.065  16.549  1.00 94.68    -0.162 NA
HETATM    5  C3  SUS B 141      -0.947  11.757  15.351  1.00 95.96     0.198 C 
HETATM    6  O6S SUS B 141      -2.527  18.531  16.431  1.00123.05    -0.572 OA
HETATM    7  S3  SUS B 141      -0.430   9.831  13.778  1.00114.01     0.252 S 
HETATM    8  O4  SUS B 141       0.499  13.522  14.616  1.00 99.22    -0.218 OA
HETATM    9  S2  SUS B 141      -2.752  17.284  15.705  1.00115.91     0.252 S 
HETATM   10  O5  SUS B 141      -2.257  13.707  16.963  1.00100.74    -0.327 OA
HETATM   11  O8S SUS B 141      -0.086   8.840  14.771  1.00115.31    -0.572 OA
HETATM   12  O4S SUS B 141      -2.072  17.266  14.413  1.00113.56    -0.572 OA
HETATM   13  O1S SUS B 141      -4.676   9.979  16.717  1.00 98.25    -0.577 OA
HETATM   14  O7S SUS B 141       0.773  10.136  13.048  1.00120.05    -0.572 OA
HETATM   15  O6  SUS B 141      -2.137  16.135  16.563  1.00111.26    -0.235 OA
HETATM   16  C5  SUS B 141      -0.999  14.033  16.416  1.00100.74     0.182 C 
HETATM   17  C4  SUS B 141      -0.791  13.256  15.121  1.00 97.99     0.212 C 
HETATM   18  C1  SUS B 141      -2.321  12.358  17.367  1.00 98.19     0.262 C 
HETATM   19  O9S SUS B 141      -1.349   9.276  12.808  1.00117.11    -0.572 OA
HETATM   20  S1  SUS B 141      -3.531   9.172  16.307  1.00 95.82     0.227 S 
HETATM   21  O2S SUS B 141      -3.561   8.849  14.883  1.00 96.83    -0.577 OA
HETATM   22  C2  SUS B 141      -2.214  11.456  16.143  1.00 95.16     0.206 C 
HETATM   23  O5S SUS B 141      -4.172  16.988  15.544  1.00115.94    -0.572 OA
HETATM   24  C1  IDY B 142       0.494  10.029  20.969  1.00107.92     0.269 C 
HETATM   25  C3  IDY B 142      -1.434  11.299  20.270  1.00108.25     0.216 C 
HETATM   26  S   IDY B 142      -0.383   7.784  18.953  1.00 99.00     0.252 S 
HETATM   27  O3  IDY B 142      -2.744  11.479  20.996  1.00115.90    -0.218 OA
HETATM   28  O4  IDY B 142      -1.256  12.081  18.248  1.00101.22    -0.326 OA
HETATM   29  C2  IDY B 142      -0.866   9.921  20.318  1.00105.76     0.226 C 
HETATM   30  C6  IDY B 142       1.604  13.392  19.612  1.00111.11     0.216 C 
HETATM   31  O61 IDY B 142       2.210  12.929  18.585  1.00109.60    -0.646 OA
HETATM   32  O62 IDY B 142       1.858  14.649  19.950  1.00116.59    -0.646 OA
HETATM   33  C5  IDY B 142       0.700  12.514  20.456  1.00110.21     0.234 C 
HETATM   34  OS2 IDY B 142      -1.627   7.035  19.218  1.00102.10    -0.572 OA
HETATM   35  O2  IDY B 142      -0.684   9.304  19.015  1.00100.29    -0.233 OA
HETATM   36  OS1 IDY B 142       0.142   7.466  17.600  1.00 98.71    -0.572 OA
HETATM   37  O5  IDY B 142       1.278  11.179  20.560  1.00108.08    -0.318 OA
HETATM   38  O1  IDY B 142       0.117  10.004  22.413  1.00107.77    -0.326 OA
HETATM   39  C7  IDY B 142       1.406  10.630  22.955  1.00 76.16     0.177 C 
HETATM   40  OS3 IDY B 142       0.609   7.378  19.990  1.00102.08    -0.572 OA
HETATM   41  C4  IDY B 142      -0.686  12.518  19.810  1.00107.29     0.189 C 
ENDROOT
TORSDOF 13
