REMARK  0 active torsions:
REMARK  status: ('A' for Active; 'I' for Inactive)
REMARK       I    between atoms: C2_2322  and  O2_2327 
REMARK       I    between atoms: C1_2321  and  O4_2310 
REMARK       I    between atoms: O2_2327  and  S_2332 
REMARK       I    between atoms: C6_2326  and  C5_2325 
REMARK       I    between atoms: O6_2242  and  C6_2236 
REMARK       I    between atoms: O6_2242  and  S2_2247 
REMARK       I    between atoms: C4_2234  and  O4_2240 
REMARK       I    between atoms: C5_2235  and  C6_2236 
REMARK       I    between atoms: S1_2243  and  N_2237 
REMARK       I    between atoms: N_2237  and  C2_2232 
REMARK       I    between atoms: O4_2240  and  C1_2251 
REMARK       I    between atoms: C4_2289  and  O4_2294 
REMARK       I    between atoms: O2_2292  and  C2_2287 
REMARK       I    between atoms: O2_2292  and  S_2298 
REMARK       I    between atoms: O4_2294  and  C1_2302 
REMARK       I    between atoms: O4_2275  and  C1_2286 
REMARK       I    between atoms: C5_2290  and  C6_2291 
REMARK       I    between atoms: O2_2257  and  C2_2252 
REMARK       I    between atoms: O2_2257  and  S_2263 
REMARK       I    between atoms: O4_2259  and  C4_2254 
REMARK       I    between atoms: O4_2259  and  C1_2267 
REMARK       I    between atoms: C6_2256  and  C5_2255 
REMARK       I    between atoms: C4_2305  and  O4_2310 
REMARK       I    between atoms: N_2308  and  C2_2303 
REMARK       I    between atoms: N_2308  and  S1_2313 
REMARK       I    between atoms: O6_2312  and  C6_2307 
REMARK       I    between atoms: O6_2312  and  S2_2317 
REMARK       I    between atoms: C6_2307  and  C5_2306 
REMARK       I    between atoms: C2_2268  and  N_2273 
REMARK       I    between atoms: S1_2278  and  N_2273 
REMARK       I    between atoms: C4_2270  and  O4_2275 
REMARK       I    between atoms: S2_2282  and  O6_2277 
REMARK       I    between atoms: C5_2271  and  C6_2272 
REMARK       I    between atoms: O6_2277  and  C6_2272 
ROOT
HETATM    1  C2  IDS A1714     -23.512  -3.361 -27.392  1.00 23.44     0.224 C 
HETATM    2  O3S IDS A1714     -26.327  -2.833 -29.931  1.00 36.62    -0.572 OA
HETATM    3  C1  IDS A1714     -22.868  -2.222 -26.646  1.00 22.91     0.268 C 
HETATM    4  O2S IDS A1714     -24.954  -4.801 -29.535  1.00 34.69    -0.572 OA
HETATM    5  O2  IDS A1714     -24.578  -2.815 -28.186  1.00 26.17    -0.233 OA
HETATM    6  S   IDS A1714     -24.972  -3.316 -29.587  1.00 26.64     0.252 S 
HETATM    7  C6  IDS A1714     -24.995  -1.945 -23.613  1.00 35.62     0.214 C 
HETATM    8  O5  IDS A1714     -23.817  -1.717 -25.690  1.00 24.82    -0.320 OA
HETATM    9  C4  IDS A1714     -24.772  -3.943 -25.212  1.00 29.71     0.077 C 
HETATM   10  O61 IDS A1714     -25.166  -0.707 -23.728  1.00 40.28    -0.646 OA
HETATM   11  C3  IDS A1714     -24.088  -4.447 -26.490  1.00 24.95     0.189 C 
HETATM   12  C5  IDS A1714     -24.167  -2.653 -24.673  1.00 31.41     0.207 C 
HETATM   13  O3  IDS A1714     -23.059  -5.396 -26.169  1.00 31.73    -0.221 OA
HETATM   14  O1S IDS A1714     -23.913  -2.818 -30.472  1.00 33.80    -0.572 OA
HETATM   15  O62 IDS A1714     -25.480  -2.598 -22.659  1.00 42.24    -0.646 OA
HETATM   16  O5  SGN A1709      -5.404 -11.455 -22.443  1.00 19.25    -0.325 OA
HETATM   17  O2S SGN A1709      -6.446 -13.632 -18.405  1.00 21.99    -0.577 OA
HETATM   18  O4S SGN A1709      -3.401  -9.342 -26.746  1.00 51.65    -0.572 OA
HETATM   19  O1  SGN A1709      -5.957 -13.715 -22.078  1.00 22.45    -0.188 OA
HETATM   20  O6  SGN A1709      -3.983 -10.670 -24.778  1.00 28.25    -0.235 OA
HETATM   21  C4  SGN A1709      -7.483 -10.842 -23.418  1.00 17.96     0.180 C 
HETATM   22  C5  SGN A1709      -6.053 -11.309 -23.707  1.00 19.14     0.179 C 
HETATM   23  C1  SGN A1709      -5.978 -12.397 -21.538  1.00 19.32     0.295 C 
HETATM   24  O5S SGN A1709      -1.554 -10.527 -25.462  1.00 68.35    -0.572 OA
HETATM   25  O1S SGN A1709      -8.812 -13.752 -18.114  1.00 20.90    -0.577 OA
HETATM   26  S1  SGN A1709      -7.716 -13.035 -18.727  1.00 19.39     0.227 S 
HETATM   27  N   SGN A1709      -7.998 -12.979 -20.295  1.00 19.63    -0.162 NA
HETATM   28  O4  SGN A1709      -8.122 -10.884 -24.705  1.00 17.90    -0.326 OA
HETATM   29  C2  SGN A1709      -7.408 -11.982 -21.180  1.00 17.91     0.210 C 
HETATM   30  C3  SGN A1709      -8.202 -11.793 -22.478  1.00 18.01     0.210 C 
HETATM   31  O3S SGN A1709      -7.698 -11.547 -18.245  1.00 19.43    -0.577 OA
HETATM   32  C6  SGN A1709      -5.290 -10.221 -24.471  1.00 21.59     0.198 C 
HETATM   33  S2  SGN A1709      -2.966  -9.692 -25.395  1.00 44.10     0.252 S 
HETATM   34  O6S SGN A1709      -2.801  -8.566 -24.465  1.00 41.79    -0.572 OA
HETATM   35  O3  SGN A1709      -9.473 -11.252 -22.115  1.00 21.65    -0.218 OA
HETATM   36  O1S IDS A1712     -20.061  -6.388 -22.141  1.00 24.21    -0.572 OA
HETATM   37  O2S IDS A1712     -17.817  -6.651 -21.172  1.00 17.88    -0.572 OA
HETATM   38  O61 IDS A1712     -15.289  -1.712 -26.554  1.00 24.10    -0.646 OA
HETATM   39  O5  IDS A1712     -16.718  -4.918 -25.887  1.00 18.57    -0.318 OA
HETATM   40  C4  IDS A1712     -16.374  -3.169 -24.258  1.00 19.79     0.189 C 
HETATM   41  O2  IDS A1712     -18.165  -5.645 -23.331  1.00 19.29    -0.233 OA
HETATM   42  O4  IDS A1712     -17.776  -2.874 -24.243  1.00 20.99    -0.326 OA
HETATM   43  C1  IDS A1712     -16.516  -6.010 -25.002  1.00 17.87     0.269 C 
HETATM   44  S   IDS A1712     -18.739  -5.788 -21.917  1.00 19.68     0.252 S 
HETATM   45  C5  IDS A1712     -15.930  -3.756 -25.604  1.00 19.18     0.234 C 
HETATM   46  O62 IDS A1712     -16.686  -2.952 -27.709  1.00 21.45    -0.646 OA
HETATM   47  O3S IDS A1712     -18.809  -4.411 -21.343  1.00 21.35    -0.572 OA
HETATM   48  C6  IDS A1712     -15.980  -2.744 -26.706  1.00 20.61     0.216 C 
HETATM   49  C3  IDS A1712     -16.119  -4.225 -23.192  1.00 17.47     0.216 C 
HETATM   50  O3  IDS A1712     -14.705  -4.409 -23.031  1.00 20.23    -0.218 OA
HETATM   51  C2  IDS A1712     -16.752  -5.588 -23.575  1.00 18.09     0.226 C 
HETATM   52  O62 IDS A1710     -11.954  -9.094 -22.941  1.00 20.09    -0.646 OA
HETATM   53  O2  IDS A1710      -9.257  -8.442 -27.156  1.00 19.73    -0.233 OA
HETATM   54  O1S IDS A1710      -8.654  -6.176 -27.948  1.00 24.26    -0.572 OA
HETATM   55  C3  IDS A1710     -10.193 -10.662 -26.978  1.00 18.46     0.216 C 
HETATM   56  O3  IDS A1710      -9.824 -12.039 -26.887  1.00 20.89    -0.218 OA
HETATM   57  O4  IDS A1710     -12.002  -9.136 -26.386  1.00 17.56    -0.326 OA
HETATM   58  O5  IDS A1710      -9.941  -9.415 -24.438  1.00 18.83    -0.318 OA
HETATM   59  C6  IDS A1710     -12.048 -10.157 -23.606  1.00 18.26     0.216 C 
HETATM   60  O2S IDS A1710      -7.097  -7.459 -26.570  1.00 28.76    -0.572 OA
HETATM   61  C5  IDS A1710     -10.962 -10.416 -24.617  1.00 16.76     0.234 C 
HETATM   62  S   IDS A1710      -8.101  -7.501 -27.653  1.00 21.94     0.252 S 
HETATM   63  C2  IDS A1710      -8.998  -9.757 -26.643  1.00 19.03     0.226 C 
HETATM   64  O3S IDS A1710      -7.597  -8.203 -28.837  1.00 27.25    -0.572 OA
HETATM   65  C4  IDS A1710     -11.412 -10.407 -26.086  1.00 17.46     0.189 C 
HETATM   66  C1  IDS A1710      -8.718  -9.648 -25.135  1.00 19.77     0.269 C 
HETATM   67  O61 IDS A1710     -12.988 -10.973 -23.483  1.00 19.29    -0.646 OA
HETATM   68  C4  SGN A1713     -20.798  -1.838 -25.494  1.00 18.92     0.180 C 
HETATM   69  N   SGN A1713     -19.135  -1.527 -22.156  1.00 20.97    -0.162 NA
HETATM   70  O4S SGN A1713     -21.679  -0.505 -29.733  1.00 26.71    -0.572 OA
HETATM   71  O4  SGN A1713     -21.698  -2.811 -26.050  1.00 21.81    -0.326 OA
HETATM   72  C2  SGN A1713     -19.395  -1.235 -23.545  1.00 20.62     0.207 C 
HETATM   73  O6  SGN A1713     -20.083  -0.247 -27.774  1.00 20.28    -0.235 OA
HETATM   74  O2S SGN A1713     -18.963   0.778 -21.507  1.00 34.60    -0.577 OA
HETATM   75  O3S SGN A1713     -18.636  -1.018 -19.684  1.00 28.96    -0.577 OA
HETATM   76  C6  SGN A1713     -19.625  -1.605 -27.746  1.00 20.05     0.198 C 
HETATM   77  O5S SGN A1713     -19.339   0.090 -30.179  1.00 27.19    -0.572 OA
HETATM   78  C5  SGN A1713     -19.504  -2.051 -26.320  1.00 19.45     0.179 C 
HETATM   79  O3  SGN A1713     -21.737  -1.631 -23.315  1.00 25.46    -0.218 OA
HETATM   80  O1S SGN A1713     -16.983  -0.581 -21.458  1.00 41.61    -0.577 OA
HETATM   81  S1  SGN A1713     -18.389  -0.497 -21.183  1.00 28.28     0.227 S 
HETATM   82  O5  SGN A1713     -18.447  -1.232 -25.771  1.00 20.15    -0.327 OA
HETATM   83  S2  SGN A1713     -20.565   0.285 -29.169  1.00 23.21     0.252 S 
HETATM   84  O6S SGN A1713     -20.862   1.678 -28.925  1.00 29.94    -0.572 OA
HETATM   85  C3  SGN A1713     -20.567  -2.081 -24.005  1.00 22.81     0.210 C 
HETATM   86  C1  SGN A1713     -18.154  -1.495 -24.407  1.00 20.31     0.263 C 
HETATM   87  C2  SGN A1711     -13.269  -7.910 -27.971  1.00 17.05     0.207 C 
HETATM   88  O4S SGN A1711     -18.788  -9.042 -24.482  1.00 24.82    -0.572 OA
HETATM   89  S1  SGN A1711     -11.859  -7.996 -30.220  1.00 17.52     0.227 S 
HETATM   90  C3  SGN A1711     -13.734  -6.826 -26.982  1.00 16.82     0.210 C 
HETATM   91  O2S SGN A1711     -12.744  -7.151 -30.961  1.00 18.39    -0.577 OA
HETATM   92  O3  SGN A1711     -14.026  -5.600 -27.661  1.00 17.40    -0.218 OA
HETATM   93  N   SGN A1711     -12.043  -7.557 -28.684  1.00 16.68    -0.162 NA
HETATM   94  C4  SGN A1711     -14.988  -7.346 -26.259  1.00 17.06     0.180 C 
HETATM   95  O4  SGN A1711     -15.181  -6.502 -25.103  1.00 17.50    -0.326 OA
HETATM   96  O6S SGN A1711     -19.007 -10.427 -26.385  1.00 27.06    -0.572 OA
HETATM   97  S2  SGN A1711     -18.214 -10.144 -25.262  1.00 22.76     0.252 S 
HETATM   98  O5  SGN A1711     -14.305  -9.626 -26.601  1.00 17.18    -0.327 OA
HETATM   99  C5  SGN A1711     -14.679  -8.702 -25.562  1.00 17.86     0.179 C 
HETATM  100  O1S SGN A1711     -12.149  -9.413 -30.318  1.00 19.64    -0.577 OA
HETATM  101  O6  SGN A1711     -16.857  -9.605 -25.764  1.00 19.31    -0.235 OA
HETATM  102  O5S SGN A1711     -17.866 -11.374 -24.310  1.00 24.90    -0.572 OA
HETATM  103  O3S SGN A1711     -10.317  -7.724 -30.512  1.00 19.99    -0.577 OA
HETATM  104  C1  SGN A1711     -13.105  -9.281 -27.285  1.00 16.44     0.263 C 
HETATM  105  C6  SGN A1711     -15.834  -9.362 -24.807  1.00 19.20     0.198 C 
ENDROOT
TORSDOF 34
