REMARK  0 active torsions:
REMARK  status: ('A' for Active; 'I' for Inactive)
REMARK       I    between atoms: C5_1255  and  C6_1256 
REMARK       I    between atoms: O1_1261  and  C3_1235 
REMARK       I    between atoms: O1_1261  and  C1_1251 
REMARK       I    between atoms: O1_1271  and  C4_1254 
REMARK       I    between atoms: O1_1271  and  C1_1263 
REMARK       I    between atoms: C3_1265  and  O1_1291 
REMARK       I    between atoms: C2_1264  and  N_1272 
REMARK       I    between atoms: S_1280  and  O4_1273 
REMARK       I    between atoms: N_1272  and  C7_1269 
REMARK       I    between atoms: C4_1266  and  O4_1273 
REMARK       I    between atoms: C5_1267  and  C6_1268 
REMARK       I    between atoms: S_1250  and  O4_1243 
REMARK       I    between atoms: C7_1239  and  N_1242 
REMARK       I    between atoms: C6_1238  and  C5_1237 
REMARK       I    between atoms: O4_1243  and  C4_1236 
REMARK       I    between atoms: C2_1234  and  N_1242 
REMARK       I    between atoms: O1_1291  and  C1_1281 
REMARK       I    between atoms: C5_1285  and  C6_1286 
ROOT
HETATM    1  C5  BDP A1197       8.019  14.283  -1.304  0.93 93.43     0.234 C 
HETATM    2  O1  BDP A1197      11.341  14.052  -2.920  0.93 89.59    -0.327 OA
HETATM    3  C1  BDP A1197      10.135  14.715  -2.492  0.93 92.04     0.270 C 
HETATM    4  O5  BDP A1197       9.352  13.866  -1.643  0.93 93.10    -0.318 OA
HETATM    5  C2  BDP A1197       9.343  15.120  -3.736  0.93 91.53     0.241 C 
HETATM    6  O6A BDP A1197       6.881  13.223   0.490  0.93 95.03    -0.646 OA
HETATM    7  O2  BDP A1197      10.063  16.138  -4.445  0.93 89.51    -0.215 OA
HETATM    8  C6  BDP A1197       7.345  13.106  -0.666  0.93 93.91     0.216 C 
HETATM    9  C3  BDP A1197       7.923  15.609  -3.441  0.93 93.71     0.217 C 
HETATM   10  O6B BDP A1197       7.266  12.052  -1.334  0.93 92.91    -0.646 OA
HETATM   11  O3  BDP A1197       7.218  15.692  -4.687  0.93 94.34    -0.218 OA
HETATM   12  C4  BDP A1197       7.158  14.676  -2.503  0.93 92.43     0.189 C 
HETATM   13  O1  ASG A1198       5.955  15.320  -2.033  0.93 89.78    -0.326 OA
HETATM   14  O7  ASG A1198       3.706  15.894   2.156  0.93 90.18    -0.271 OA
HETATM   15  OSB ASG A1198      -0.028  17.179  -3.779  0.93 60.75    -0.572 OA
HETATM   16  C3  ASG A1198       2.180  14.962  -1.687  0.93 83.61     0.176 C 
HETATM   17  C2  ASG A1198       3.601  15.467  -1.391  0.93 86.94     0.192 C 
HETATM   18  S   ASG A1198       1.005  16.622  -4.680  0.93 65.70     0.252 S 
HETATM   19  N   ASG A1198       3.758  15.215   0.038  0.93 88.66    -0.232 NA
HETATM   20  OSA ASG A1198       0.386  15.597  -5.550  0.93 61.65    -0.572 OA
HETATM   21  C4  ASG A1198       1.992  14.732  -3.181  0.93 79.38     0.196 C 
HETATM   22  C5  ASG A1198       3.096  13.800  -3.671  0.93 79.73     0.182 C 
HETATM   23  O4  ASG A1198       2.131  15.998  -3.834  0.93 74.49    -0.235 OA
HETATM   24  C8  ASG A1198       3.206  17.536   0.518  0.93 89.97     0.100 C 
HETATM   25  C7  ASG A1198       3.571  16.152   0.973  0.93 89.76     0.252 C 
HETATM   26  C1  ASG A1198       4.692  14.636  -2.099  0.93 86.88     0.262 C 
HETATM   27  OSC ASG A1198       1.569  17.708  -5.514  0.93 60.79    -0.572 OA
HETATM   28  O6  ASG A1198       1.518  13.313  -5.402  0.93 73.86    -0.218 OA
HETATM   29  C6  ASG A1198       2.916  13.417  -5.135  0.93 75.74     0.214 C 
HETATM   30  O5  ASG A1198       4.365  14.432  -3.477  0.93 84.01    -0.327 OA
HETATM   31  S   ASG A1196      11.780  10.422  -3.840  0.93 77.81     0.252 S 
HETATM   32  OSB ASG A1196      12.080  10.725  -5.258  0.93 72.24    -0.572 OA
HETATM   33  C7  ASG A1196      14.640  15.662  -3.352  0.93 92.05     0.252 C 
HETATM   34  C6  ASG A1196      12.671  10.018  -0.372  0.93 80.78     0.214 C 
HETATM   35  C8  ASG A1196      14.920  14.778  -4.530  0.93 91.37     0.100 C 
HETATM   36  O6  ASG A1196      13.812   9.499   0.320  0.93 79.84    -0.218 OA
HETATM   37  C1  ASG A1196      14.584  13.075  -1.183  0.93 84.40     0.294 C 
HETATM   38  O4  ASG A1196      12.513  11.458  -2.973  0.93 81.55    -0.235 OA
HETATM   39  C4  ASG A1196      11.996  12.033  -1.765  0.93 84.15     0.196 C 
HETATM   40  C3  ASG A1196      12.244  13.527  -1.934  0.93 87.84     0.176 C 
HETATM   41  C5  ASG A1196      12.908  11.493  -0.666  0.93 82.22     0.182 C 
HETATM   42  OSA ASG A1196      10.316  10.492  -3.624  0.93 77.05    -0.572 OA
HETATM   43  OSC ASG A1196      12.297   9.068  -3.524  0.93 73.26    -0.572 OA
HETATM   44  C2  ASG A1196      13.722  13.670  -2.299  0.93 88.31     0.195 C 
HETATM   45  O5  ASG A1196      14.274  11.691  -1.039  0.93 81.67    -0.325 OA
HETATM   46  O1  ASG A1196      15.968  13.186  -1.530  0.93 82.74    -0.188 OA
HETATM   47  N   ASG A1196      14.053  15.090  -2.300  0.93 91.17    -0.232 NA
HETATM   48  O7  ASG A1196      14.930  16.847  -3.364  0.93 93.76    -0.271 OA
HETATM   49  O3  BDP A1199      -3.077  16.618   1.103  0.93 84.86    -0.220 OA
HETATM   50  O1  BDP A1199       1.163  15.850  -1.193  0.93 84.41    -0.327 OA
HETATM   51  O6A BDP A1199      -1.716  11.456  -1.603  0.93 81.70    -0.646 OA
HETATM   52  C4  BDP A1199      -2.677  14.605  -0.155  0.93 85.22     0.077 C 
HETATM   53  O5  BDP A1199      -0.444  14.195  -1.091  0.93 85.66    -0.320 OA
HETATM   54  C1  BDP A1199       0.157  15.267  -0.352  0.93 84.84     0.270 C 
HETATM   55  C5  BDP A1199      -1.619  13.580  -0.550  0.93 85.62     0.207 C 
HETATM   56  C2  BDP A1199      -0.873  16.302   0.110  0.93 84.73     0.238 C 
HETATM   57  C3  BDP A1199      -2.077  15.644   0.779  0.93 85.04     0.191 C 
HETATM   58  C6  BDP A1199      -2.170  12.622  -1.569  0.93 84.01     0.214 C 
HETATM   59  O2  BDP A1199      -0.255  17.196   1.040  0.93 84.91    -0.215 OA
HETATM   60  O6B BDP A1199      -3.050  13.024  -2.361  0.93 84.12    -0.646 OA
ENDROOT
TORSDOF 16
